CypD-x0294-pandda-model
     RDKit          3D

 14 14  0  0  0  0  0  0  0  0999 V2000
  -21.6901   21.4604   19.3310 C   0  0  0  0  0  0  0  0  0  0  0  0
  -23.9260   16.5781   20.0969 N   0  0  0  0  0  0  0  0  0  0  0  0
  -23.0433   21.8209   19.1393 O   0  0  0  0  0  0  0  0  0  0  0  0
  -23.9870   20.8412   19.1026 C   0  0  0  0  0  0  0  0  0  0  0  0
  -27.0172   20.0726   17.2180 O   0  0  0  0  0  0  0  0  0  0  0  0
  -23.9232   19.7497   19.9588 C   0  0  0  0  0  0  0  0  0  0  0  0
  -25.0583   21.9854   17.3135 O   0  0  0  0  0  0  0  0  0  0  0  0
  -24.8833   18.7531   19.8955 C   0  0  0  0  0  0  0  0  0  0  0  0
  -24.7806   17.5322   20.7891 C   0  0  0  0  0  0  0  0  0  0  0  0
  -25.9308   18.8637   18.9940 C   0  0  0  0  0  0  0  0  0  0  0  0
  -26.0142   19.9525   18.1330 C   0  0  0  0  0  0  0  0  0  0  0  0
  -27.7347   18.9406   16.7648 C   0  0  0  0  0  0  0  0  0  0  0  0
  -25.0328   20.9429   18.1862 C   0  0  0  0  0  0  0  0  0  0  0  0
  -25.9381   23.0377   17.6335 C   0  0  0  0  0  0  0  0  0  0  0  0
  1  3  1  0
  2  9  1  0
  3  4  1  0
  4  6  2  0
  4 13  1  0
  5 11  1  0
  5 12  1  0
  6  8  1  0
  7 13  1  0
  7 14  1  0
  8  9  1  0
  8 10  2  0
 10 11  1  0
 11 13  2  0
M  CHG  1   2   1
M  END
$$$$
