CypD-x0512-pandda-model
     RDKit          3D

 14 14  0  0  0  0  0  0  0  0999 V2000
    6.6770    8.9140   11.9760 C   0  0  0  0  0  0  0  0  0  0  0  0
    8.1980   10.0440    9.8640 N   0  0  0  0  0  0  0  0  0  0  0  0
    8.8980   10.3140   12.2890 O   0  0  0  0  0  0  0  0  0  0  0  0
    8.3020    9.3550   11.3910 S   0  0  0  0  0  0  0  0  0  0  0  0
    7.2390   11.1610    9.6100 C   0  0  0  0  0  0  0  0  0  0  0  0
    9.0340    8.1220   11.1900 O   0  0  0  0  0  0  0  0  0  0  0  0
    7.5070   12.3800   10.5290 C   0  0  0  0  0  0  0  0  0  0  0  0
    5.4310    9.6920    8.9990 O   0  0  0  0  0  0  0  0  0  0  0  0
    8.9270   12.9790   10.4200 C   0  0  0  0  0  0  0  0  0  0  0  0
    4.9480   11.1210   10.5160 O   0  0  0  0  0  0  0  0  0  0  0  0
    9.6090   12.7030    9.0720 C   0  0  0  0  0  0  0  0  0  0  0  0
    8.5890   12.6780    7.9310 C   0  0  0  0  0  0  0  0  0  0  0  0
    7.4860   11.6160    8.1440 C   0  0  0  0  0  0  0  0  0  0  0  0
    5.7600   10.6590    9.7010 C   0  0  0  0  0  0  0  0  0  0  0  0
  1  4  1  0
  2  4  1  0
  2  5  1  0
  3  4  2  0
  4  6  2  0
  5  7  1  0
  5 13  1  0
  5 14  1  0
  7  9  1  0
  8 14  1  0
  9 11  1  0
 10 14  2  0
 11 12  1  0
 12 13  1  0
M  CHG  1   8  -1
M  END
$$$$
