CypD-x0879-pandda-model
     RDKit          3D

 13 13  0  0  0  0  0  0  0  0999 V2000
    9.9827   19.1242   13.3205 C   0  0  0  0  0  0  0  0  0  0  0  0
    8.2173   17.7068   14.2704 N   0  0  0  0  0  0  0  0  0  0  0  0
    7.7614   15.5087   14.1515 O   0  0  0  0  0  0  0  0  0  0  0  0
    8.4884   19.0121   13.6171 C   0  0  0  0  0  0  0  0  0  0  0  0
    4.5577   17.9719   10.2457 N   0  0  0  0  0  0  0  0  0  0  0  0
    8.3339   17.7424   15.7587 C   0  0  0  0  0  0  0  0  0  0  0  0
    7.7896   16.5873   13.5839 C   0  0  0  0  0  0  0  0  0  0  0  0
    7.3629   16.6409   12.2021 C   0  0  0  0  0  0  0  0  0  0  0  0
    8.0676   15.9825   11.1949 C   0  0  0  0  0  0  0  0  0  0  0  0
    7.6198   15.9898    9.8866 C   0  0  0  0  0  0  0  0  0  0  0  0
    6.4514   16.6542    9.5645 C   0  0  0  0  0  0  0  0  0  0  0  0
    5.7358   17.3256   10.5456 C   0  0  0  0  0  0  0  0  0  0  0  0
    6.1999   17.3172   11.8489 C   0  0  0  0  0  0  0  0  0  0  0  0
  1  4  1  0
  2  4  1  0
  2  6  1  0
  2  7  1  0
  3  7  2  0
  5 12  1  0
  7  8  1  0
  8  9  2  0
  8 13  1  0
  9 10  1  0
 10 11  2  0
 11 12  1  0
 12 13  2  0
M  END
$$$$
