CypD-x0568-pandda-model
     RDKit          3D

  9  9  0  0  1  0  0  0  0  0999 V2000
  -24.3300   27.1999   -0.1478 C   0  0  0  0  0  0  0  0  0  0  0  0
  -21.4734   24.1092   -0.5801 N   0  0  0  0  0  0  0  0  0  0  0  0
  -23.4555   26.1799   -0.5371 O   0  0  0  0  0  0  0  0  0  0  0  0
  -19.4462   25.8561   -0.7031 S   0  0  0  0  0  0  0  0  0  0  0  0
  -22.0992   26.5527   -0.4817 C   0  0  0  0  0  0  0  0  0  0  0  0
  -20.3583   23.7690    0.3100 N   0  0  0  0  0  0  0  0  0  0  0  0
  -21.2017   25.4848   -1.1370 C   0  0  2  0  0  0  0  0  0  0  0  0
  -18.1930   24.3266    1.0524 N   0  0  0  0  0  0  0  0  0  0  0  0
  -19.2806   24.4952    0.3428 C   0  0  0  0  0  0  0  0  0  0  0  0
  1  3  1  0
  2  6  1  0
  2  7  1  0
  3  5  1  0
  4  7  1  0
  4  9  1  0
  7  5  1  1
  6  9  2  0
  8  9  1  0
M  CHG  1   6   1
M  END
$$$$
