CypD-x0065-pandda-model
     RDKit          3D

 17 18  0  0  0  0  0  0  0  0999 V2000
  -18.9541   25.5609   -1.0535 C   0  0  0  0  0  0  0  0  0  0  0  0
  -21.3806   24.9474   -0.9707 N   0  0  0  0  0  0  0  0  0  0  0  0
  -25.0377   25.7923    3.0977 O   0  0  0  0  0  0  0  0  0  0  0  0
  -20.0915   24.7140   -1.6454 C   0  0  0  0  0  0  0  0  0  0  0  0
  -23.5853   27.1129    2.0811 N   0  0  0  0  0  0  0  0  0  0  0  0
  -21.8713   26.1262   -0.5354 C   0  0  0  0  0  0  0  0  0  0  0  0
  -24.2130   27.1170    6.9158 N   0  0  0  0  0  0  0  0  0  0  0  0
  -23.0580   25.8711    0.0511 C   0  0  0  0  0  0  0  0  0  0  0  0
  -22.2342   23.9366   -0.7026 N   0  0  0  0  0  0  0  0  0  0  0  0
  -24.0308   26.8297    0.7028 C   0  0  0  0  0  0  0  0  0  0  0  0
  -24.2072   26.6711    3.2126 C   0  0  0  0  0  0  0  0  0  0  0  0
  -23.9133   27.2551    4.5096 C   0  0  0  0  0  0  0  0  0  0  0  0
  -23.2032   28.4432    4.6569 C   0  0  0  0  0  0  0  0  0  0  0  0
  -23.0184   28.9391    5.9290 C   0  0  0  0  0  0  0  0  0  0  0  0
  -23.5384   28.2511    7.0086 C   0  0  0  0  0  0  0  0  0  0  0  0
  -24.3733   26.6533    5.6825 C   0  0  0  0  0  0  0  0  0  0  0  0
  -23.2247   24.4992   -0.0762 C   0  0  0  0  0  0  0  0  0  0  0  0
  1  4  1  0
  2  4  1  0
  2  6  1  0
  2  9  1  0
  3 11  2  0
  5 10  1  0
  5 11  1  0
  6  8  2  0
  7 15  2  0
  7 16  1  0
  8 10  1  0
  8 17  1  0
  9 17  2  0
 11 12  1  0
 12 13  1  0
 12 16  2  0
 13 14  2  0
 14 15  1  0
M  END
$$$$
