CypD-x0954-pandda-model
     RDKit          3D

 14 16  0  0  1  0  0  0  0  0999 V2000
  -26.6311    2.0976   -6.0983 C   0  0  0  0  0  0  0  0  0  0  0  0
  -26.9949    3.1742   -6.8418 N   0  0  0  0  0  0  0  0  0  0  0  0
  -26.4397    1.9513   -4.9165 O   0  0  0  0  0  0  0  0  0  0  0  0
  -26.6221    2.4862   -8.1345 C   0  0  1  0  0  0  0  0  0  0  0  0
  -23.0971    3.8341   -8.5049 N   0  0  0  0  0  0  0  0  0  0  0  0
  -25.3428    3.0143   -8.7718 C   0  0  0  0  0  0  0  0  0  0  0  0
  -25.2569    3.1159  -10.1467 C   0  0  0  0  0  0  0  0  0  0  0  0
  -24.0766    3.5926  -10.6735 C   0  0  0  0  0  0  0  0  0  0  0  0
  -23.0462    3.9425   -9.8176 C   0  0  0  0  0  0  0  0  0  0  0  0
  -24.2397    3.3846   -8.0137 C   0  0  0  0  0  0  0  0  0  0  0  0
  -26.4619    1.1998   -7.3120 C   0  0  0  0  0  0  0  0  0  0  0  0
  -25.2391    0.2601   -7.3890 C   0  0  0  0  0  0  0  0  0  0  0  0
  -26.2129   -0.8699   -6.9406 C   0  0  0  0  0  0  0  0  0  0  0  0
  -27.4042   -0.0101   -7.4621 C   0  0  0  0  0  0  0  0  0  0  0  0
  1  2  1  0
  1  3  2  0
  1 11  1  0
  2  4  1  0
  4  6  1  1
  4 11  1  0
  5  9  2  0
  5 10  1  0
  6  7  1  0
  6 10  2  0
  7  8  2  0
  8  9  1  0
 11 12  1  0
 11 14  1  0
 12 13  1  0
 13 14  1  0
M  END
$$$$
