CypD-x0919-pandda-model
     RDKit          3D

 14 15  0  0  0  0  0  0  0  0999 V2000
  -13.8730   23.6840   21.7410 C   0  0  0  0  0  0  0  0  0  0  0  0
  -16.3070   23.9870   20.3880 N   0  0  0  0  0  0  0  0  0  0  0  0
  -14.8640   22.4990   21.7380 C   0  0  0  0  0  0  0  0  0  0  0  0
  -20.9110   22.8300   19.4900 N   0  0  0  0  0  0  0  0  0  0  0  0
  -15.0530   22.0680   23.2060 C   0  0  0  0  0  0  0  0  0  0  0  0
  -17.2250   21.9750   21.2360 N   0  0  0  0  0  0  0  0  0  0  0  0
  -14.1930   21.3450   20.9690 C   0  0  0  0  0  0  0  0  0  0  0  0
  -16.2330   22.8520   21.0750 C   0  0  0  0  0  0  0  0  0  0  0  0
  -17.4430   24.2370   19.7830 C   0  0  0  0  0  0  0  0  0  0  0  0
  -18.5090   23.3760   19.8430 C   0  0  0  0  0  0  0  0  0  0  0  0
  -19.7600   23.6520   19.0260 C   0  0  0  0  0  0  0  0  0  0  0  0
  -20.5250   21.4020   19.6670 C   0  0  0  0  0  0  0  0  0  0  0  0
  -19.4980   21.2730   20.7920 C   0  0  0  0  0  0  0  0  0  0  0  0
  -18.3540   22.2490   20.6170 C   0  0  0  0  0  0  0  0  0  0  0  0
  1  3  1  0
  2  8  2  0
  2  9  1  0
  3  5  1  0
  3  7  1  0
  3  8  1  0
  4 11  1  0
  4 12  1  0
  6  8  1  0
  6 14  2  0
  9 10  2  0
 10 11  1  0
 10 14  1  0
 12 13  1  0
 13 14  1  0
M  CHG  1   4   1
M  END
$$$$
