CypD-x0374-pandda-model
     RDKit          3D

 15 16  0  0  1  0  0  0  0  0999 V2000
  -20.7230   -3.7040   -6.2990 C   0  0  0  0  0  0  0  0  0  0  0  0
  -19.6500   -2.1490   -4.8040 N   0  0  0  0  0  0  0  0  0  0  0  0
  -23.3650    3.1020   -8.3070 O   0  0  0  0  0  0  0  0  0  0  0  0
  -20.2660   -2.2610   -6.1180 C   0  0  2  0  0  0  0  0  0  0  0  0
  -24.3270    1.7530   -6.7420 N   0  0  0  0  0  0  0  0  0  0  0  0
  -21.3810   -1.2170   -6.2060 C   0  0  0  0  0  0  0  0  0  0  0  0
  -21.0270    0.1040   -6.4510 C   0  0  0  0  0  0  0  0  0  0  0  0
  -21.9940    1.0820   -6.5830 C   0  0  0  0  0  0  0  0  0  0  0  0
  -23.3440    0.7800   -6.5140 C   0  0  0  0  0  0  0  0  0  0  0  0
  -24.3300    2.7690   -7.6590 C   0  0  0  0  0  0  0  0  0  0  0  0
  -25.6470    3.4890   -7.9020 C   0  0  0  0  0  0  0  0  0  0  0  0
  -26.4360    3.1780   -9.1440 C   0  0  0  0  0  0  0  0  0  0  0  0
  -26.9800    2.8000   -7.8050 C   0  0  0  0  0  0  0  0  0  0  0  0
  -23.7000   -0.5330   -6.2340 C   0  0  0  0  0  0  0  0  0  0  0  0
  -22.7360   -1.5170   -6.0790 C   0  0  0  0  0  0  0  0  0  0  0  0
  4  1  1  1
  2  4  1  0
  3 10  2  0
  4  6  1  0
  5  9  1  0
  5 10  1  0
  6  7  2  0
  6 15  1  0
  7  8  1  0
  8  9  2  0
  9 14  1  0
 10 11  1  0
 11 12  1  0
 11 13  1  0
 12 13  1  0
 14 15  2  0
M  CHG  1   2   1
M  END
$$$$
