CypD-x0627-pandda-model
     RDKit          3D

 14 15  0  0  0  0  0  0  0  0999 V2000
  -14.7402   20.6325   -7.8434 C   0  0  0  0  0  0  0  0  0  0  0  0
  -13.0333   16.4149   -9.6072 N   0  0  0  0  0  0  0  0  0  0  0  0
  -15.0276   19.3169  -10.1008 O   0  0  0  0  0  0  0  0  0  0  0  0
  -14.6159   19.0890   -8.7289 S   0  0  0  0  0  0  0  0  0  0  0  0
  -12.8581   18.7108   -8.6823 C   0  0  0  0  0  0  0  0  0  0  0  0
  -11.8709   16.6022   -7.7214 N   0  0  0  0  0  0  0  0  0  0  0  0
  -15.3689   18.1037   -7.9902 O   0  0  0  0  0  0  0  0  0  0  0  0
  -12.5897   17.2183   -8.7004 C   0  0  0  0  0  0  0  0  0  0  0  0
  -12.6237   15.1828   -9.1895 C   0  0  0  0  0  0  0  0  0  0  0  0
  -12.8454   13.9277   -9.7514 C   0  0  0  0  0  0  0  0  0  0  0  0
  -12.3830   12.8091   -9.0957 C   0  0  0  0  0  0  0  0  0  0  0  0
  -11.6713   12.9260   -7.8946 C   0  0  0  0  0  0  0  0  0  0  0  0
  -11.4268   14.1618   -7.3431 C   0  0  0  0  0  0  0  0  0  0  0  0
  -11.9189   15.2832   -8.0061 C   0  0  0  0  0  0  0  0  0  0  0  0
  1  4  1  0
  2  8  2  0
  2  9  1  0
  3  4  2  0
  4  5  1  0
  4  7  2  0
  5  8  1  0
  6  8  1  0
  6 14  1  0
  9 10  2  0
  9 14  1  0
 10 11  1  0
 11 12  2  0
 12 13  1  0
 13 14  2  0
M  END
$$$$
