CypD-x0286-pandda-model
     RDKit          3D

 11 11  0  0  0  0  0  0  0  0999 V2000
    3.1072    9.1687   19.7244 C   0  0  0  0  0  0  0  0  0  0  0  0
    1.6475    7.4402   20.7578 N   0  0  0  0  0  0  0  0  0  0  0  0
   -0.6004    3.8293   19.3418 O   0  0  0  0  0  0  0  0  0  0  0  0
    2.5448    8.5925   21.0336 C   0  0  0  0  0  0  0  0  0  0  0  0
   -0.1499    6.2999   20.7459 N   0  0  0  0  0  0  0  0  0  0  0  0
    1.4473    3.7955   18.7045 O   0  0  0  0  0  0  0  0  0  0  0  0
    3.6785    8.1795   21.9812 C   0  0  0  0  0  0  0  0  0  0  0  0
    0.3770    7.3956   21.1682 N   0  0  0  0  0  0  0  0  0  0  0  0
    1.9225    6.3390   20.0660 C   0  0  0  0  0  0  0  0  0  0  0  0
    0.7808    5.6124   20.0405 C   0  0  0  0  0  0  0  0  0  0  0  0
    0.5362    4.3479   19.3567 C   0  0  0  0  0  0  0  0  0  0  0  0
  1  4  1  0
  2  4  1  0
  2  8  1  0
  2  9  1  0
  3 11  1  0
  4  7  1  0
  5  8  2  0
  5 10  1  0
  6 11  2  0
  9 10  2  0
 10 11  1  0
M  CHG  1   3  -1
M  END
$$$$
