CypD-x0449-pandda-model
     RDKit          3D

 15 16  0  0  1  0  0  0  0  0999 V2000
   -9.5058   18.4932   -8.3021 C   0  0  0  0  0  0  0  0  0  0  0  0
   -9.2789   17.4412   -9.3313 N   0  0  1  0  0  0  0  0  0  0  0  0
  -12.2365   18.1412   -9.5058 O   0  0  0  0  0  0  0  0  0  0  0  0
   -9.4216   16.0715   -8.7435 C   0  0  0  0  0  0  0  0  0  0  0  0
  -14.2985   17.5751  -10.0761 O   0  0  0  0  0  0  0  0  0  0  0  0
  -10.8913   15.6782   -8.5450 C   0  0  0  0  0  0  0  0  0  0  0  0
  -13.5527   20.3115   -8.1486 O   0  0  0  0  0  0  0  0  0  0  0  0
  -11.6990   15.8129   -9.8447 C   0  0  0  0  0  0  0  0  0  0  0  0
  -11.6014   17.2430  -10.4031 C   0  0  2  0  0  0  0  0  0  0  0  0
  -10.1118   17.6463  -10.5665 C   0  0  0  0  0  0  0  0  0  0  0  0
  -13.5640   18.2321   -9.3566 C   0  0  0  0  0  0  0  0  0  0  0  0
  -14.0833   19.1088   -8.3436 C   0  0  0  0  0  0  0  0  0  0  0  0
  -15.1318   18.9545   -7.4838 C   0  0  0  0  0  0  0  0  0  0  0  0
  -15.2302   20.1368   -6.7543 C   0  0  0  0  0  0  0  0  0  0  0  0
  -14.2367   20.9277   -7.2126 C   0  0  0  0  0  0  0  0  0  0  0  0
  2  1  1  1
  2  4  1  0
  2 10  1  0
  9  3  1  1
  3 11  1  0
  4  6  1  0
  5 11  2  0
  6  8  1  0
  7 12  1  0
  7 15  1  0
  8  9  1  0
  9 10  1  0
 11 12  1  0
 12 13  2  0
 13 14  1  0
 14 15  2  0
M  CHG  1   2   1
M  END
$$$$
