CypD-x0252-pandda-model
     RDKit          3D

 15 16  0  0  0  0  0  0  0  0999 V2000
  -21.0459   28.2425    2.3884 C   0  0  0  0  0  0  0  0  0  0  0  0
  -19.9704   26.1895    1.4471 N   0  0  0  0  0  0  0  0  0  0  0  0
  -16.8482   24.8096    1.4686 O   0  0  0  0  0  0  0  0  0  0  0  0
  -20.8686   25.8551    3.8133 S   0  0  0  0  0  0  0  0  0  0  0  0
  -20.5705   26.8105    2.3799 C   0  0  0  0  0  0  0  0  0  0  0  0
  -17.0076   24.4407   -0.7468 N   0  0  0  0  0  0  0  0  0  0  0  0
  -15.4629   23.7632   -3.1499 O   0  0  0  0  0  0  0  0  0  0  0  0
  -19.6823   24.8851    1.8165 C   0  0  0  0  0  0  0  0  0  0  0  0
  -18.9603   24.0117    0.8097 C   0  0  0  0  0  0  0  0  0  0  0  0
  -17.5322   24.4675    0.5266 C   0  0  0  0  0  0  0  0  0  0  0  0
  -15.6136   24.9206   -0.9717 C   0  0  0  0  0  0  0  0  0  0  0  0
  -15.2360   24.9738   -2.4664 C   0  0  0  0  0  0  0  0  0  0  0  0
  -16.5367   22.9686   -2.7084 C   0  0  0  0  0  0  0  0  0  0  0  0
  -17.6111   23.7507   -1.9287 C   0  0  0  0  0  0  0  0  0  0  0  0
  -20.0884   24.5106    3.0385 C   0  0  0  0  0  0  0  0  0  0  0  0
  1  5  1  0
  2  5  2  0
  2  8  1  0
  3 10  2  0
  4  5  1  0
  4 15  1  0
  6 10  1  0
  6 11  1  0
  6 14  1  0
  7 12  1  0
  7 13  1  0
  8  9  1  0
  8 15  2  0
  9 10  1  0
 11 12  1  0
 13 14  1  0
M  END
$$$$
