CypD-x0672-pandda-model
     RDKit          3D

 14 15  0  0  0  0  0  0  0  0999 V2000
  -19.5832   24.3885    1.8306 C   0  0  0  0  0  0  0  0  0  0  0  0
  -20.5457   24.1278   -1.1199 N   0  0  0  0  0  0  0  0  0  0  0  0
  -19.8072   24.7113    3.1546 C   0  0  0  0  0  0  0  0  0  0  0  0
  -23.5248   25.9171   -0.3438 N   0  0  0  0  0  0  0  0  0  0  0  0
  -20.0128   26.0370    3.4916 C   0  0  0  0  0  0  0  0  0  0  0  0
  -23.8984   24.6904    0.0947 N   0  0  0  0  0  0  0  0  0  0  0  0
  -19.9864   27.0105    2.5049 C   0  0  0  0  0  0  0  0  0  0  0  0
  -19.7693   26.6642    1.1802 C   0  0  0  0  0  0  0  0  0  0  0  0
  -19.5730   25.3386    0.8202 C   0  0  0  0  0  0  0  0  0  0  0  0
  -19.3995   24.9529   -0.6468 C   0  0  0  0  0  0  0  0  0  0  0  0
  -21.8062   24.6455   -0.7337 C   0  0  0  0  0  0  0  0  0  0  0  0
  -22.2661   25.9064   -0.8425 C   0  0  0  0  0  0  0  0  0  0  0  0
  -22.8528   23.9510   -0.1358 C   0  0  0  0  0  0  0  0  0  0  0  0
  -19.3873   23.1320    1.5389 F   0  0  0  0  0  0  0  0  0  0  0  0
  1  3  2  0
  1  9  1  0
  1 14  1  0
  2 10  1  0
  2 11  1  0
  3  5  1  0
  4  6  1  0
  4 12  1  0
  5  7  2  0
  6 13  2  0
  7  8  1  0
  8  9  2  0
  9 10  1  0
 11 12  2  0
 11 13  1  0
M  END
$$$$
