CypD-x0992-pandda-model
     RDKit          3D

 12 13  0  0  0  0  0  0  0  0999 V2000
  -12.4576   11.0291  -12.1950 C   0  0  0  0  0  0  0  0  0  0  0  0
  -12.2399   11.5246   -9.8759 N   0  0  0  0  0  0  0  0  0  0  0  0
  -12.4317   12.3552  -12.5572 C   0  0  0  0  0  0  0  0  0  0  0  0
  -12.0133   14.7104   -7.1881 N   0  0  0  0  0  0  0  0  0  0  0  0
  -12.2929   13.2551  -11.5210 C   0  0  0  0  0  0  0  0  0  0  0  0
  -12.3457   13.5748   -7.8373 N   0  0  0  0  0  0  0  0  0  0  0  0
  -12.1965   12.8251  -10.1891 C   0  0  0  0  0  0  0  0  0  0  0  0
  -12.3527   10.6556  -10.8703 C   0  0  0  0  0  0  0  0  0  0  0  0
  -12.0466   13.7906   -9.1054 C   0  0  0  0  0  0  0  0  0  0  0  0
  -11.5519   15.0932   -9.2642 C   0  0  0  0  0  0  0  0  0  0  0  0
  -11.5538   15.6449   -8.0376 C   0  0  0  0  0  0  0  0  0  0  0  0
  -12.5915   10.1172  -13.1211 F   0  0  0  0  0  0  0  0  0  0  0  0
  1  3  2  0
  1  8  1  0
  1 12  1  0
  2  7  1  0
  2  8  2  0
  3  5  1  0
  4  6  1  0
  4 11  1  0
  5  7  2  0
  6  9  2  0
  7  9  1  0
  9 10  1  0
 10 11  2  0
M  END
$$$$
