CypD-x0781-pandda-model
     RDKit          3D

 14 14  0  0  1  0  0  0  0  0999 V2000
    6.8180   17.7000    9.4200 C   0  0  0  0  0  0  0  0  0  0  0  0
    4.5070   21.1390   11.0160 N   0  0  0  0  0  0  0  0  0  0  0  0
    6.2560   18.8280   10.0170 O   0  0  0  0  0  0  0  0  0  0  0  0
    4.8700   18.9380    9.7960 C   0  0  0  0  0  0  0  0  0  0  0  0
    5.6750   19.9450   15.1140 N   0  0  0  0  0  0  0  0  0  0  0  0
    3.8840   20.8610    8.8700 O   0  0  0  0  0  0  0  0  0  0  0  0
    4.3910   20.3920    9.8680 C   0  0  0  0  0  0  0  0  0  0  0  0
    3.8330   20.9500   15.7760 O   0  0  0  0  0  0  0  0  0  0  0  0
    4.0650   22.5640   11.0010 C   0  0  0  0  0  0  0  0  0  0  0  0
    4.7910   23.3750   12.0740 C   0  0  0  0  0  0  0  0  0  0  0  0
    4.5920   22.8090   13.4890 C   0  0  0  0  0  0  0  0  0  0  0  0
    4.2830   21.2970   13.5020 C   0  0  1  0  0  0  0  0  0  0  0  0
    4.9480   20.5610   12.3310 C   0  0  0  0  0  0  0  0  0  0  0  0
    4.5920   20.7030   14.8720 C   0  0  0  0  0  0  0  0  0  0  0  0
  1  3  1  0
  2  7  1  0
  2  9  1  0
  2 13  1  0
  3  4  1  0
  4  7  1  0
  5 14  1  0
  6  7  2  0
  8 14  2  0
  9 10  1  0
 10 11  1  0
 11 12  1  0
 12 13  1  0
 12 14  1  1
M  END
$$$$
