CypD-x0176-pandda-model
     RDKit          3D

 12 13  0  0  0  0  0  0  0  0999 V2000
  -12.7033   15.6452  -10.4164 C   0  0  0  0  0  0  0  0  0  0  0  0
  -11.7404   16.2204   -9.6561 N   0  0  0  0  0  0  0  0  0  0  0  0
  -13.6048   16.3770  -10.7904 O   0  0  0  0  0  0  0  0  0  0  0  0
  -12.6738   14.2294  -10.7329 C   0  0  0  0  0  0  0  0  0  0  0  0
  -12.7208   10.1900  -11.7580 N   0  0  0  0  0  0  0  0  0  0  0  0
  -12.1113   13.2982   -9.8482 C   0  0  0  0  0  0  0  0  0  0  0  0
  -12.0866   11.9458  -10.1287 C   0  0  0  0  0  0  0  0  0  0  0  0
  -12.6384   11.4842  -11.3109 C   0  0  0  0  0  0  0  0  0  0  0  0
  -13.1847   10.1829  -13.1645 C   0  0  0  0  0  0  0  0  0  0  0  0
  -13.6930   11.6172  -13.4103 C   0  0  0  0  0  0  0  0  0  0  0  0
  -13.1821   12.3777  -12.2034 C   0  0  0  0  0  0  0  0  0  0  0  0
  -13.2101   13.7325  -11.9289 C   0  0  0  0  0  0  0  0  0  0  0  0
  1  2  1  0
  1  3  2  0
  1  4  1  0
  4  6  2  0
  4 12  1  0
  5  8  1  0
  5  9  1  0
  6  7  1  0
  7  8  2  0
  8 11  1  0
  9 10  1  0
 10 11  1  0
 11 12  2  0
M  END
$$$$
