CypD-x0085-pandda-model
     RDKit          3D

 14 15  0  0  0  0  0  0  0  0999 V2000
  -19.5469   24.4173    1.8962 C   0  0  0  0  0  0  0  0  0  0  0  0
  -20.3371   24.3399   -1.1107 N   0  0  0  0  0  0  0  0  0  0  0  0
  -19.8599   24.7291    3.2046 C   0  0  0  0  0  0  0  0  0  0  0  0
  -23.0837   26.5415   -0.5829 N   0  0  0  0  0  0  0  0  0  0  0  0
  -19.9941   26.0595    3.5587 C   0  0  0  0  0  0  0  0  0  0  0  0
  -23.7034   25.3753   -0.2854 N   0  0  0  0  0  0  0  0  0  0  0  0
  -19.8038   27.0477    2.6056 C   0  0  0  0  0  0  0  0  0  0  0  0
  -19.4970   26.7130    1.2964 C   0  0  0  0  0  0  0  0  0  0  0  0
  -19.3820   25.3838    0.9165 C   0  0  0  0  0  0  0  0  0  0  0  0
  -19.1445   25.0110   -0.5427 C   0  0  0  0  0  0  0  0  0  0  0  0
  -21.5536   25.0187   -0.8476 C   0  0  0  0  0  0  0  0  0  0  0  0
  -21.7909   26.3407   -0.9276 C   0  0  0  0  0  0  0  0  0  0  0  0
  -22.7717   24.4769   -0.4397 C   0  0  0  0  0  0  0  0  0  0  0  0
  -19.4080   23.1573    1.5883 F   0  0  0  0  0  0  0  0  0  0  0  0
  1  3  2  0
  1  9  1  0
  1 14  1  0
  2 10  1  0
  2 11  1  0
  3  5  1  0
  4  6  1  0
  4 12  1  0
  5  7  2  0
  6 13  2  0
  7  8  1  0
  8  9  2  0
  9 10  1  0
 11 12  2  0
 11 13  1  0
M  END
$$$$
