CypD-x0380-pandda-model
     RDKit          3D

 12 12  0  0  0  0  0  0  0  0999 V2000
   -4.0506   23.9379  -12.2537 C   0  0  0  0  0  0  0  0  0  0  0  0
   -4.2345   23.8902   -9.7492 N   0  0  0  0  0  0  0  0  0  0  0  0
   -5.2952   25.4435  -11.0010 O   0  0  0  0  0  0  0  0  0  0  0  0
   -4.5806   24.4711  -10.9407 C   0  0  0  0  0  0  0  0  0  0  0  0
   -4.0275   22.4811   -7.2288 N   0  0  0  0  0  0  0  0  0  0  0  0
   -2.2789   21.3736   -6.3362 O   0  0  0  0  0  0  0  0  0  0  0  0
   -3.5135   22.5742   -9.6574 C   0  0  0  0  0  0  0  0  0  0  0  0
   -3.1943   22.9006   -5.0704 N   0  0  0  0  0  0  0  0  0  0  0  0
   -4.0304   21.7046   -8.5031 C   0  0  0  0  0  0  0  0  0  0  0  0
   -4.9477   23.6540   -7.3135 C   0  0  0  0  0  0  0  0  0  0  0  0
   -4.5036   24.5948   -8.4459 C   0  0  0  0  0  0  0  0  0  0  0  0
   -3.1329   22.2345   -6.2269 C   0  0  0  0  0  0  0  0  0  0  0  0
  1  4  1  0
  2  4  1  0
  2  7  1  0
  2 11  1  0
  3  4  2  0
  5  9  1  0
  5 10  1  0
  5 12  1  0
  6 12  2  0
  7  9  1  0
  8 12  1  0
 10 11  1  0
M  END
$$$$
