CypD-x0110-pandda-model
     RDKit          3D

 10 10  0  0  0  0  0  0  0  0999 V2000
    1.6680    6.3420    1.2550 C   0  0  0  0  0  0  0  0  0  0  0  0
    0.6300    8.2690    6.5060 N   0  0  0  0  0  0  0  0  0  0  0  0
   -0.3840    7.2760    2.0600 O   0  0  0  0  0  0  0  0  0  0  0  0
    0.8490    7.6150    1.4630 C   0  0  0  0  0  0  0  0  0  0  0  0
    0.8560    9.3170    5.6820 N   0  0  0  0  0  0  0  0  0  0  0  0
   -1.0340    5.8530    3.5660 O   0  0  0  0  0  0  0  0  0  0  0  0
   -0.4780    6.9070    3.3370 C   0  0  0  0  0  0  0  0  0  0  0  0
    0.0440    7.7470    4.3900 C   0  0  0  0  0  0  0  0  0  0  0  0
    0.1670    7.3400    5.7220 C   0  0  0  0  0  0  0  0  0  0  0  0
    0.4980    9.0350    4.4230 C   0  0  0  0  0  0  0  0  0  0  0  0
  1  4  1  0
  2  5  1  0
  2  9  2  0
  3  4  1  0
  3  7  1  0
  5 10  1  0
  6  7  2  0
  7  8  1  0
  8  9  1  0
  8 10  2  0
M  END
$$$$
