CypD-x0833-pandda-model
     RDKit          3D

 18 19  0  0  0  0  0  0  0  0999 V2000
  -27.9779   18.5822   17.5553 C   0  0  0  0  0  0  0  0  0  0  0  0
  -28.5041   18.6096   16.1837 N   0  0  0  0  0  0  0  0  0  0  0  0
  -32.0645   17.7803   14.0604 O   0  0  0  0  0  0  0  0  0  0  0  0
  -27.9003   19.1602   15.1192 C   0  0  0  0  0  0  0  0  0  0  0  0
  -29.6770   18.0627   15.8509 N   0  0  0  0  0  0  0  0  0  0  0  0
  -31.0059   14.4477    7.2006 O   0  0  0  0  0  0  0  0  0  0  0  0
  -28.6994   18.9441   14.0589 C   0  0  0  0  0  0  0  0  0  0  0  0
  -30.6053   17.3427   12.4136 N   0  0  0  0  0  0  0  0  0  0  0  0
  -30.1075   16.3588    7.4452 O   0  0  0  0  0  0  0  0  0  0  0  0
  -29.8090   18.2359   14.5443 C   0  0  0  0  0  0  0  0  0  0  0  0
  -30.9001   17.7665   13.6935 C   0  0  0  0  0  0  0  0  0  0  0  0
  -31.2758   16.4972   11.5168 C   0  0  0  0  0  0  0  0  0  0  0  0
  -32.3204   15.6635   11.8981 C   0  0  0  0  0  0  0  0  0  0  0  0
  -32.8815   14.7860   10.9895 C   0  0  0  0  0  0  0  0  0  0  0  0
  -32.4030   14.7244    9.6926 C   0  0  0  0  0  0  0  0  0  0  0  0
  -31.3576   15.5435    9.2663 C   0  0  0  0  0  0  0  0  0  0  0  0
  -30.8269   16.4325   10.2041 C   0  0  0  0  0  0  0  0  0  0  0  0
  -30.8212   15.4563    7.9140 C   0  0  0  0  0  0  0  0  0  0  0  0
  1  2  1  0
  2  4  1  0
  2  5  1  0
  3 11  2  0
  4  7  2  0
  5 10  2  0
  6 18  1  0
  7 10  1  0
  8 11  1  0
  8 12  1  0
  9 18  2  0
 10 11  1  0
 12 13  2  0
 12 17  1  0
 13 14  1  0
 14 15  2  0
 15 16  1  0
 16 17  2  0
 16 18  1  0
M  CHG  1   6  -1
M  END
$$$$
