CypD-x0897-pandda-model
     RDKit          3D

 15 17  0  0  1  0  0  0  0  0999 V2000
  -25.6272   -0.1551  -13.3149 C   0  0  0  0  0  0  0  0  0  0  0  0
  -23.2871   -0.9497  -13.2839 N   0  0  0  0  0  0  0  0  0  0  0  0
  -24.4658   -0.6888  -14.1588 C   0  0  0  0  0  0  0  0  0  0  0  0
  -22.5317    5.4537  -11.5830 N   0  0  0  0  0  0  0  0  0  0  0  0
  -22.8324    0.2656  -12.5322 C   0  0  0  0  0  0  0  0  0  0  0  0
  -23.9685    0.8365  -11.6756 C   0  0  2  0  0  0  0  0  0  0  0  0
  -25.2347    1.0949  -12.5100 C   0  0  0  0  0  0  0  0  0  0  0  0
  -23.5315    2.0850  -10.9110 C   0  0  0  0  0  0  0  0  0  0  0  0
  -23.5784    2.0574   -9.5316 C   0  0  0  0  0  0  0  0  0  0  0  0
  -23.2636    3.1819   -8.7658 C   0  0  0  0  0  0  0  0  0  0  0  0
  -22.9005    4.3546   -9.3755 C   0  0  0  0  0  0  0  0  0  0  0  0
  -22.8275    4.3943  -10.7661 C   0  0  0  0  0  0  0  0  0  0  0  0
  -22.6207    5.0178  -12.8738 C   0  0  0  0  0  0  0  0  0  0  0  0
  -22.9641    3.7071  -12.8876 C   0  0  0  0  0  0  0  0  0  0  0  0
  -23.1231    3.2761  -11.5460 C   0  0  0  0  0  0  0  0  0  0  0  0
  1  3  1  0
  1  7  1  0
  2  3  1  0
  2  5  1  0
  4 12  1  0
  4 13  1  0
  5  6  1  0
  6  7  1  0
  6  8  1  6
  8  9  1  0
  8 15  2  0
  9 10  2  0
 10 11  1  0
 11 12  2  0
 12 15  1  0
 13 14  2  0
 14 15  1  0
M  CHG  1   2   1
M  END
$$$$
