CypD-x0290-pandda-model
     RDKit          3D

 13 13  0  0  0  0  0  0  0  0999 V2000
    6.5129   18.5841   16.4697 C   0  0  0  0  0  0  0  0  0  0  0  0
    7.8212   18.2476   14.4149 N   0  0  0  0  0  0  0  0  0  0  0  0
    8.0187   16.0158   14.1975 O   0  0  0  0  0  0  0  0  0  0  0  0
    7.8885   18.2433   15.9016 C   0  0  0  0  0  0  0  0  0  0  0  0
    4.5662   18.1072   10.1587 N   0  0  0  0  0  0  0  0  0  0  0  0
    7.8307   19.6055   13.7993 C   0  0  0  0  0  0  0  0  0  0  0  0
    7.7639   17.0865   13.6709 C   0  0  0  0  0  0  0  0  0  0  0  0
    7.3949   17.0977   12.2719 C   0  0  0  0  0  0  0  0  0  0  0  0
    8.2274   16.5331   11.3088 C   0  0  0  0  0  0  0  0  0  0  0  0
    7.8606   16.5076    9.9771 C   0  0  0  0  0  0  0  0  0  0  0  0
    6.6444   17.0306    9.5827 C   0  0  0  0  0  0  0  0  0  0  0  0
    5.7979   17.6058   10.5208 C   0  0  0  0  0  0  0  0  0  0  0  0
    6.1881   17.6436   11.8483 C   0  0  0  0  0  0  0  0  0  0  0  0
  1  4  1  0
  2  4  1  0
  2  6  1  0
  2  7  1  0
  3  7  2  0
  5 12  1  0
  7  8  1  0
  8  9  2  0
  8 13  1  0
  9 10  1  0
 10 11  2  0
 11 12  1  0
 12 13  2  0
M  END
$$$$
