CypD-x0402-pandda-model
     RDKit          3D

 14 14  0  0  0  0  0  0  0  0999 V2000
    3.2650   11.2160    8.1490 C   0  0  0  0  0  0  0  0  0  0  0  0
    2.3400   11.4260   10.4240 N   0  0  0  0  0  0  0  0  0  0  0  0
    3.5520    9.6040    9.8100 O   0  0  0  0  0  0  0  0  0  0  0  0
    3.0610   10.6780    9.5420 C   0  0  0  0  0  0  0  0  0  0  0  0
    6.0200   10.9340   13.9800 O   0  0  0  0  0  0  0  0  0  0  0  0
    2.4510   11.5560   11.8160 C   0  0  0  0  0  0  0  0  0  0  0  0
    4.9360   10.5430   15.7570 O   0  0  0  0  0  0  0  0  0  0  0  0
    1.4110   12.1520   12.5200 C   0  0  0  0  0  0  0  0  0  0  0  0
    1.5060   12.3480   13.8820 C   0  0  0  0  0  0  0  0  0  0  0  0
    2.6500   11.9440   14.5370 C   0  0  0  0  0  0  0  0  0  0  0  0
    3.7220   11.3350   13.8900 C   0  0  0  0  0  0  0  0  0  0  0  0
    3.5870   11.1590   12.5110 C   0  0  0  0  0  0  0  0  0  0  0  0
    4.9320   10.9290   14.5720 C   0  0  0  0  0  0  0  0  0  0  0  0
    2.7040   12.1850   15.8180 F   0  0  0  0  0  0  0  0  0  0  0  0
  1  4  1  0
  2  4  1  0
  2  6  1  0
  3  4  2  0
  5 13  1  0
  6  8  2  0
  6 12  1  0
  7 13  2  0
  8  9  1  0
  9 10  2  0
 10 11  1  0
 10 14  1  0
 11 12  2  0
 11 13  1  0
M  CHG  1   5  -1
M  END
$$$$
