CypD-x0333-pandda-model
     RDKit          3D

 14 14  0  0  0  0  0  0  0  0999 V2000
  -24.9416    4.1916  -14.3268 C   0  0  0  0  0  0  0  0  0  0  0  0
  -25.3484    5.8941  -16.0894 N   0  0  0  0  0  0  0  0  0  0  0  0
  -26.7904    5.6476  -14.4098 O   0  0  0  0  0  0  0  0  0  0  0  0
  -25.7629    5.2981  -14.9452 C   0  0  0  0  0  0  0  0  0  0  0  0
  -21.5987    5.5811  -13.9304 O   0  0  0  0  0  0  0  0  0  0  0  0
  -24.2576    5.5649  -16.9000 C   0  0  0  0  0  0  0  0  0  0  0  0
  -20.3315    7.0015  -14.8680 O   0  0  0  0  0  0  0  0  0  0  0  0
  -24.4743    4.6996  -17.9655 C   0  0  0  0  0  0  0  0  0  0  0  0
  -23.4485    4.3597  -18.8261 C   0  0  0  0  0  0  0  0  0  0  0  0
  -22.1869    4.8888  -18.6298 C   0  0  0  0  0  0  0  0  0  0  0  0
  -21.9584    5.7484  -17.5695 C   0  0  0  0  0  0  0  0  0  0  0  0
  -22.9778    6.0879  -16.6921 C   0  0  0  0  0  0  0  0  0  0  0  0
  -22.6351    7.0297  -15.5302 C   0  0  0  0  0  0  0  0  0  0  0  0
  -21.4648    6.5235  -14.7176 C   0  0  0  0  0  0  0  0  0  0  0  0
  1  4  1  0
  2  4  1  0
  2  6  1  0
  3  4  2  0
  5 14  1  0
  6  8  2  0
  6 12  1  0
  7 14  2  0
  8  9  1  0
  9 10  2  0
 10 11  1  0
 11 12  2  0
 12 13  1  0
 13 14  1  0
M  CHG  1   5  -1
M  END
$$$$
