CypD-x0186-pandda-model
     RDKit          3D

 14 14  0  0  1  0  0  0  0  0999 V2000
  -10.8347   23.1886   -8.5143 C   0  0  0  0  0  0  0  0  0  0  0  0
   -9.0194   18.7294   -9.8672 N   0  0  2  0  0  0  0  0  0  0  0  0
  -14.3284   16.7364  -11.4916 O   0  0  0  0  0  0  0  0  0  0  0  0
  -13.4476   17.4777  -10.6183 S   0  0  0  0  0  0  0  0  0  0  0  0
  -10.2000   21.8438   -8.6091 C   0  0  0  0  0  0  0  0  0  0  0  0
  -14.0958   18.2007   -9.5517 O   0  0  0  0  0  0  0  0  0  0  0  0
   -9.6843   20.7731   -8.6238 C   0  0  0  0  0  0  0  0  0  0  0  0
   -9.0253   19.4352   -8.5442 C   0  0  0  0  0  0  0  0  0  0  0  0
   -8.2938   19.5493  -10.8920 C   0  0  0  0  0  0  0  0  0  0  0  0
  -10.3136   18.1736  -10.3684 C   0  0  0  0  0  0  0  0  0  0  0  0
  -11.3177   19.2492  -10.8376 C   0  0  0  0  0  0  0  0  0  0  0  0
  -12.4949   18.6281  -11.6083 C   0  0  0  0  0  0  0  0  0  0  0  0
  -12.1459   16.4316   -9.9457 C   0  0  0  0  0  0  0  0  0  0  0  0
  -10.9604   17.2224   -9.3428 C   0  0  0  0  0  0  0  0  0  0  0  0
  1  5  1  0
  2  8  1  0
  2  9  1  6
  2 10  1  0
  3  4  2  0
  4  6  2  0
  4 12  1  0
  4 13  1  0
  5  7  3  0
  7  8  1  0
 10 11  1  0
 10 14  1  0
 11 12  1  0
 13 14  1  0
M  CHG  1   2   1
M  END
$$$$
