CypD-x0978-pandda-model
     RDKit          3D

 13 14  0  0  0  0  0  0  0  0999 V2000
  -20.6332   26.9443    2.1136 C   0  0  0  0  0  0  0  0  0  0  0  0
  -22.7070   28.6053    1.3105 N   0  0  0  0  0  0  0  0  0  0  0  0
  -20.4168   29.4076    0.9171 O   0  0  0  0  0  0  0  0  0  0  0  0
  -21.1621   28.6889    1.9210 S   0  0  0  0  0  0  0  0  0  0  0  0
  -20.4745   26.2517    3.2646 C   0  0  0  0  0  0  0  0  0  0  0  0
  -20.1191   24.9548    2.9640 N   0  0  0  0  0  0  0  0  0  0  0  0
  -21.3561   29.2684    3.2288 O   0  0  0  0  0  0  0  0  0  0  0  0
  -20.0526   24.8547    1.6290 C   0  0  0  0  0  0  0  0  0  0  0  0
  -20.5105   26.2916   -0.2668 N   0  0  0  0  0  0  0  0  0  0  0  0
  -19.7612   23.7885    0.7748 C   0  0  0  0  0  0  0  0  0  0  0  0
  -20.3859   26.0503    1.0762 N   0  0  0  0  0  0  0  0  0  0  0  0
  -19.8606   24.0140   -0.5744 C   0  0  0  0  0  0  0  0  0  0  0  0
  -20.2498   25.2802   -1.0481 C   0  0  0  0  0  0  0  0  0  0  0  0
  1  4  1  0
  1  5  2  0
  1 11  1  0
  2  4  1  0
  3  4  2  0
  4  7  2  0
  5  6  1  0
  6  8  2  0
  8 10  1  0
  8 11  1  0
  9 11  1  0
  9 13  2  0
 10 12  2  0
 12 13  1  0
M  CHG  1   6   1
M  END
$$$$
