CypD-x0762-pandda-model
     RDKit          3D

 12 13  0  0  0  0  0  0  0  0999 V2000
  -12.5716   14.5643   -8.5474 C   0  0  0  0  0  0  0  0  0  0  0  0
  -12.3272   13.9282   -7.3728 N   0  0  0  0  0  0  0  0  0  0  0  0
  -12.9412   15.7218   -8.4710 O   0  0  0  0  0  0  0  0  0  0  0  0
  -12.4787   13.8985   -9.8342 C   0  0  0  0  0  0  0  0  0  0  0  0
  -12.5044   11.8412  -13.4572 N   0  0  0  0  0  0  0  0  0  0  0  0
  -12.5438   14.6292  -11.0301 C   0  0  0  0  0  0  0  0  0  0  0  0
  -12.5478   14.0160  -12.2699 C   0  0  0  0  0  0  0  0  0  0  0  0
  -12.4740   12.6347  -12.3394 C   0  0  0  0  0  0  0  0  0  0  0  0
  -12.3454   10.4166  -13.0493 C   0  0  0  0  0  0  0  0  0  0  0  0
  -12.2333   10.4388  -11.5174 C   0  0  0  0  0  0  0  0  0  0  0  0
  -12.3554   11.9031  -11.1835 C   0  0  0  0  0  0  0  0  0  0  0  0
  -12.3492   12.5094   -9.9476 C   0  0  0  0  0  0  0  0  0  0  0  0
  1  2  1  0
  1  3  2  0
  1  4  1  0
  4  6  2  0
  4 12  1  0
  5  8  1  0
  5  9  1  0
  6  7  1  0
  7  8  2  0
  8 11  1  0
  9 10  1  0
 10 11  1  0
 11 12  2  0
M  END
$$$$
