CypD-x0395-pandda-model
     RDKit          3D

 14 14  0  0  0  0  0  0  0  0999 V2000
   -4.9585    9.7766   -5.7893 C   0  0  0  0  0  0  0  0  0  0  0  0
   -6.3771   11.1900   -7.2254 N   0  0  0  0  0  0  0  0  0  0  0  0
   -4.1285   11.2994   -7.3654 O   0  0  0  0  0  0  0  0  0  0  0  0
   -5.1216   10.8243   -6.8602 C   0  0  0  0  0  0  0  0  0  0  0  0
   -8.6180   11.3007  -11.8397 O   0  0  0  0  0  0  0  0  0  0  0  0
   -6.7397   12.1939   -8.1396 C   0  0  0  0  0  0  0  0  0  0  0  0
   -9.4956   13.1983  -11.8922 O   0  0  0  0  0  0  0  0  0  0  0  0
   -7.4281   11.8678   -9.2987 C   0  0  0  0  0  0  0  0  0  0  0  0
   -7.8825   12.8347  -10.2014 C   0  0  0  0  0  0  0  0  0  0  0  0
   -7.6207   14.1750   -9.9041 C   0  0  0  0  0  0  0  0  0  0  0  0
   -6.9122   14.5350   -8.7721 C   0  0  0  0  0  0  0  0  0  0  0  0
   -6.4751   13.5431   -7.9183 C   0  0  0  0  0  0  0  0  0  0  0  0
   -8.6416   12.4512  -11.3812 C   0  0  0  0  0  0  0  0  0  0  0  0
   -5.7970   13.8945   -6.8572 F   0  0  0  0  0  0  0  0  0  0  0  0
  1  4  1  0
  2  4  1  0
  2  6  1  0
  3  4  2  0
  5 13  1  0
  6  8  2  0
  6 12  1  0
  7 13  2  0
  8  9  1  0
  9 10  2  0
  9 13  1  0
 10 11  1  0
 11 12  2  0
 12 14  1  0
M  CHG  1   5  -1
M  END
$$$$
