CypD-x0715-pandda-model
     RDKit          3D

 14 15  0  0  0  0  0  0  0  0999 V2000
  -13.2260   -3.8082    2.3715 C   0  0  0  0  0  0  0  0  0  0  0  0
  -13.6216   -4.3555    1.0797 N   0  0  0  0  0  0  0  0  0  0  0  0
  -15.5481   -2.2071    2.2969 S   0  0  0  0  0  0  0  0  0  0  0  0
  -12.5807   -5.0201    0.2892 C   0  0  0  0  0  0  0  0  0  0  0  0
  -14.9734   -6.4719   -3.0122 N   0  0  0  0  0  0  0  0  0  0  0  0
  -13.3415   -5.5808   -0.8965 C   0  0  0  0  0  0  0  0  0  0  0  0
  -13.4294   -4.8907   -2.0889 C   0  0  0  0  0  0  0  0  0  0  0  0
  -14.2347   -5.3745   -3.1028 C   0  0  0  0  0  0  0  0  0  0  0  0
  -14.8159   -7.1724   -1.8985 C   0  0  0  0  0  0  0  0  0  0  0  0
  -14.0352   -6.7749   -0.8263 C   0  0  0  0  0  0  0  0  0  0  0  0
  -14.5020   -3.3859    3.0839 C   0  0  0  0  0  0  0  0  0  0  0  0
  -15.0227   -3.7410    4.2751 C   0  0  0  0  0  0  0  0  0  0  0  0
  -16.2590   -3.0891    4.5888 C   0  0  0  0  0  0  0  0  0  0  0  0
  -16.6796   -2.2373    3.6364 C   0  0  0  0  0  0  0  0  0  0  0  0
  1  2  1  0
  1 11  1  0
  2  4  1  0
  3 11  1  0
  3 14  1  0
  4  6  1  0
  5  8  2  0
  5  9  1  0
  6  7  2  0
  6 10  1  0
  7  8  1  0
  9 10  2  0
 11 12  2  0
 12 13  1  0
 13 14  2  0
M  CHG  1   2   1
M  END
$$$$
