CypD-x0950-pandda-model
     RDKit          3D

 11 12  0  0  0  0  0  0  0  0999 V2000
  -16.7920   -0.1450    5.4230 C   0  0  0  0  0  0  0  0  0  0  0  0
  -17.2500    0.5790    6.1800 N   0  0  0  0  0  0  0  0  0  0  0  0
  -16.2170   -1.0830    4.4980 C   0  0  0  0  0  0  0  0  0  0  0  0
  -15.6220   -0.7760    3.3810 N   0  0  0  0  0  0  0  0  0  0  0  0
  -15.5300   -3.0040    3.6470 C   0  0  0  0  0  0  0  0  0  0  0  0
  -15.2000   -1.9490    2.8500 N   0  0  0  0  0  0  0  0  0  0  0  0
  -15.2800   -4.3750    3.5410 C   0  0  0  0  0  0  0  0  0  0  0  0
  -15.7460   -5.2060    4.5330 C   0  0  0  0  0  0  0  0  0  0  0  0
  -16.4580   -4.6850    5.6230 C   0  0  0  0  0  0  0  0  0  0  0  0
  -16.6970   -3.3340    5.7210 C   0  0  0  0  0  0  0  0  0  0  0  0
  -16.2140   -2.4760    4.7200 C   0  0  0  0  0  0  0  0  0  0  0  0
  1  2  3  0
  1  3  1  0
  3  4  2  0
  3 11  1  0
  4  6  1  0
  5  6  1  0
  5  7  1  0
  5 11  2  0
  7  8  2  0
  8  9  1  0
  9 10  2  0
 10 11  1  0
M  END
$$$$
