CypD-x0618-pandda-model
     RDKit          3D

 15 15  0  0  1  0  0  0  0  0999 V2000
    1.3835    9.7170    9.5485 C   0  0  0  0  0  0  0  0  0  0  0  0
    3.2611   10.2082    7.9705 N   0  0  0  0  0  0  0  0  0  0  0  0
    3.4729   10.4564   10.2020 O   0  0  0  0  0  0  0  0  0  0  0  0
   -1.4499   10.7343    4.3288 S   0  0  0  0  0  0  0  0  0  0  0  0
    2.7884   10.1577    9.2506 C   0  0  0  0  0  0  0  0  0  0  0  0
   -0.1079   10.4610    5.3023 N   0  0  0  0  0  0  0  0  0  0  0  0
   -1.2379   11.8687    3.4575 O   0  0  0  0  0  0  0  0  0  0  0  0
    4.5201   10.9655    7.6868 C   0  0  0  0  0  0  0  0  0  0  0  0
   -2.6081   10.6635    5.1942 O   0  0  0  0  0  0  0  0  0  0  0  0
    4.7703   11.1309    6.1844 C   0  0  0  0  0  0  0  0  0  0  0  0
    3.5355   11.6604    5.4290 C   0  0  0  0  0  0  0  0  0  0  0  0
    2.1931   11.0996    5.9510 C   0  0  1  0  0  0  0  0  0  0  0  0
    1.1835   10.9205    4.8030 C   0  0  0  0  0  0  0  0  0  0  0  0
   -1.4538    9.3118    3.2705 C   0  0  0  0  0  0  0  0  0  0  0  0
    2.4364    9.8322    6.7764 C   0  0  0  0  0  0  0  0  0  0  0  0
  1  5  1  0
  2  5  1  0
  2  8  1  0
  2 15  1  0
  3  5  2  0
  4  6  1  0
  4  7  2  0
  4  9  2  0
  4 14  1  0
  6 13  1  0
  8 10  1  0
 10 11  1  0
 11 12  1  0
 12 13  1  6
 12 15  1  0
M  END
$$$$
