CypD-x0470-pandda-model
     RDKit          3D

 14 14  0  0  0  0  0  0  0  0999 V2000
    4.9740   17.3930   10.4770 C   0  0  0  0  0  0  0  0  0  0  0  0
    4.3540   19.6390   11.3160 N   0  0  0  0  0  0  0  0  0  0  0  0
    5.9020   19.3610    9.6880 O   0  0  0  0  0  0  0  0  0  0  0  0
    5.1120   18.8900   10.4660 C   0  0  0  0  0  0  0  0  0  0  0  0
    5.3010   24.2450    9.9050 N   0  0  0  0  0  0  0  0  0  0  0  0
    4.7730   25.2180    7.9820 O   0  0  0  0  0  0  0  0  0  0  0  0
    4.2480   21.0340   11.4630 C   0  0  0  0  0  0  0  0  0  0  0  0
    5.9200   23.3400    7.8390 N   0  0  0  0  0  0  0  0  0  0  0  0
    3.6660   21.5320   12.6200 C   0  0  0  0  0  0  0  0  0  0  0  0
    3.6190   22.8940   12.8570 C   0  0  0  0  0  0  0  0  0  0  0  0
    4.1710   23.7750   11.9520 C   0  0  0  0  0  0  0  0  0  0  0  0
    4.7270   23.3110   10.7710 C   0  0  0  0  0  0  0  0  0  0  0  0
    5.3030   24.2900    8.5520 C   0  0  0  0  0  0  0  0  0  0  0  0
    4.7160   21.9440   10.5210 C   0  0  0  0  0  0  0  0  0  0  0  0
  1  4  1  0
  2  4  1  0
  2  7  1  0
  3  4  2  0
  5 12  1  0
  5 13  1  0
  6 13  2  0
  7  9  2  0
  7 14  1  0
  8 13  1  0
  9 10  1  0
 10 11  2  0
 11 12  1  0
 12 14  2  0
M  END
$$$$
