CypD-x0762-pandda-model
     RDKit          3D

 12 13  0  0  0  0  0  0  0  0999 V2000
   -9.0768   11.2854   -8.9030 C   0  0  0  0  0  0  0  0  0  0  0  0
   -9.5243   11.7878   -7.7323 N   0  0  0  0  0  0  0  0  0  0  0  0
   -8.8031   10.0998   -8.9010 O   0  0  0  0  0  0  0  0  0  0  0  0
   -8.9530   12.1081  -10.0904 C   0  0  0  0  0  0  0  0  0  0  0  0
   -8.7679   14.2833  -13.6293 N   0  0  0  0  0  0  0  0  0  0  0  0
   -8.8717   13.5085  -10.0183 C   0  0  0  0  0  0  0  0  0  0  0  0
   -8.7896   14.2917  -11.1551 C   0  0  0  0  0  0  0  0  0  0  0  0
   -8.7918   13.6808  -12.3980 C   0  0  0  0  0  0  0  0  0  0  0  0
   -9.0727   13.2572  -14.6604 C   0  0  0  0  0  0  0  0  0  0  0  0
   -8.8922   11.9074  -13.9432 C   0  0  0  0  0  0  0  0  0  0  0  0
   -8.8605   12.3117  -12.4899 C   0  0  0  0  0  0  0  0  0  0  0  0
   -8.9288   11.5250  -11.3613 C   0  0  0  0  0  0  0  0  0  0  0  0
  1  2  1  0
  1  3  2  0
  1  4  1  0
  4  6  2  0
  4 12  1  0
  5  8  1  0
  5  9  1  0
  6  7  1  0
  7  8  2  0
  8 11  1  0
  9 10  1  0
 10 11  1  0
 11 12  2  0
M  END
$$$$
