CypD-x0290-pandda-model
     RDKit          3D

 13 13  0  0  0  0  0  0  0  0999 V2000
  -10.1841   18.6485  -10.4143 C   0  0  0  0  0  0  0  0  0  0  0  0
  -12.2696   18.6015   -9.1290 N   0  0  0  0  0  0  0  0  0  0  0  0
  -14.2110   17.9833  -10.0522 O   0  0  0  0  0  0  0  0  0  0  0  0
  -10.8050   18.3533   -9.0516 C   0  0  0  0  0  0  0  0  0  0  0  0
  -12.2498   13.6526   -6.8750 N   0  0  0  0  0  0  0  0  0  0  0  0
  -12.6830   20.0264   -8.9690 C   0  0  0  0  0  0  0  0  0  0  0  0
  -13.1524   17.6372   -9.5527 C   0  0  0  0  0  0  0  0  0  0  0  0
  -12.8692   16.2212   -9.4419 C   0  0  0  0  0  0  0  0  0  0  0  0
  -12.8560   15.4149  -10.5787 C   0  0  0  0  0  0  0  0  0  0  0  0
  -12.6441   14.0525  -10.4868 C   0  0  0  0  0  0  0  0  0  0  0  0
  -12.4398   13.4708   -9.2525 C   0  0  0  0  0  0  0  0  0  0  0  0
  -12.4430   14.2487   -8.1042 C   0  0  0  0  0  0  0  0  0  0  0  0
  -12.6417   15.6155   -8.2087 C   0  0  0  0  0  0  0  0  0  0  0  0
  1  4  1  0
  2  4  1  0
  2  6  1  0
  2  7  1  0
  3  7  2  0
  5 12  1  0
  7  8  1  0
  8  9  2  0
  8 13  1  0
  9 10  1  0
 10 11  2  0
 11 12  1  0
 12 13  2  0
M  END
$$$$
