CypD-x0627-pandda-model
     RDKit          3D

 14 15  0  0  0  0  0  0  0  0999 V2000
   -5.8658   13.0069   -6.4182 C   0  0  0  0  0  0  0  0  0  0  0  0
   -6.0014   10.3745   -8.4330 N   0  0  0  0  0  0  0  0  0  0  0  0
   -4.9030   12.0546   -4.1484 O   0  0  0  0  0  0  0  0  0  0  0  0
   -4.7250   11.9209   -5.5773 S   0  0  0  0  0  0  0  0  0  0  0  0
   -5.2294   10.2727   -6.0735 C   0  0  0  0  0  0  0  0  0  0  0  0
   -3.8700    9.8306   -8.1064 N   0  0  0  0  0  0  0  0  0  0  0  0
   -3.3994   12.1739   -6.0938 O   0  0  0  0  0  0  0  0  0  0  0  0
   -5.0761   10.1350   -7.5678 C   0  0  0  0  0  0  0  0  0  0  0  0
   -5.3633   10.2613   -9.6323 C   0  0  0  0  0  0  0  0  0  0  0  0
   -5.8441   10.4705  -10.9234 C   0  0  0  0  0  0  0  0  0  0  0  0
   -4.9794   10.3447  -11.9871 C   0  0  0  0  0  0  0  0  0  0  0  0
   -3.6307   10.0372  -11.7759 C   0  0  0  0  0  0  0  0  0  0  0  0
   -3.1450    9.8235  -10.5079 C   0  0  0  0  0  0  0  0  0  0  0  0
   -4.0352    9.9312   -9.4425 C   0  0  0  0  0  0  0  0  0  0  0  0
  1  4  1  0
  2  8  2  0
  2  9  1  0
  3  4  2  0
  4  5  1  0
  4  7  2  0
  5  8  1  0
  6  8  1  0
  6 14  1  0
  9 10  2  0
  9 14  1  0
 10 11  1  0
 11 12  2  0
 12 13  1  0
 13 14  2  0
M  END
$$$$
