CypD-x0919-pandda-model
     RDKit          3D

 14 15  0  0  0  0  0  0  0  0999 V2000
  -15.0631   21.7801   23.4189 C   0  0  0  0  0  0  0  0  0  0  0  0
  -16.4208   23.6937   20.6119 N   0  0  0  0  0  0  0  0  0  0  0  0
  -14.9192   22.2703   21.9636 C   0  0  0  0  0  0  0  0  0  0  0  0
  -20.9988   22.3918   19.8280 N   0  0  0  0  0  0  0  0  0  0  0  0
  -13.9848   23.5003   21.9935 C   0  0  0  0  0  0  0  0  0  0  0  0
  -17.2691   21.6754   21.5176 N   0  0  0  0  0  0  0  0  0  0  0  0
  -14.2131   21.1740   21.1444 C   0  0  0  0  0  0  0  0  0  0  0  0
  -16.3073   22.5769   21.3238 C   0  0  0  0  0  0  0  0  0  0  0  0
  -17.5692   23.8943   20.0110 C   0  0  0  0  0  0  0  0  0  0  0  0
  -18.6100   23.0049   20.1096 C   0  0  0  0  0  0  0  0  0  0  0  0
  -19.8812   23.2247   19.3083 C   0  0  0  0  0  0  0  0  0  0  0  0
  -20.5707   20.9767   20.0101 C   0  0  0  0  0  0  0  0  0  0  0  0
  -19.5141   20.8840   21.1106 C   0  0  0  0  0  0  0  0  0  0  0  0
  -18.4108   21.8995   20.9061 C   0  0  0  0  0  0  0  0  0  0  0  0
  1  3  1  0
  2  8  2  0
  2  9  1  0
  3  5  1  0
  3  7  1  0
  3  8  1  0
  4 11  1  0
  4 12  1  0
  6  8  1  0
  6 14  2  0
  9 10  2  0
 10 11  1  0
 10 14  1  0
 12 13  1  0
 13 14  1  0
M  CHG  1   4   1
M  END
$$$$
