CypD-x0291-pandda-model
     RDKit          3D

 15 16  0  0  0  0  0  0  0  0999 V2000
    3.0830    9.1511   18.9368 C   0  0  0  0  0  0  0  0  0  0  0  0
    1.7392    7.4517   20.9512 N   0  0  0  0  0  0  0  0  0  0  0  0
   -0.3860    3.9456   19.1123 O   0  0  0  0  0  0  0  0  0  0  0  0
    3.2224    9.3578   20.4398 C   0  0  0  0  0  0  0  0  0  0  0  0
   -0.0609    6.3257   20.6612 N   0  0  0  0  0  0  0  0  0  0  0  0
    1.7030    3.9342   18.6366 O   0  0  0  0  0  0  0  0  0  0  0  0
    4.0175   10.3977   20.8959 C   0  0  0  0  0  0  0  0  0  0  0  0
    0.4202    7.3843   21.2060 N   0  0  0  0  0  0  0  0  0  0  0  0
    4.1664   10.6329   22.2506 C   0  0  0  0  0  0  0  0  0  0  0  0
    3.5165    9.8254   23.1653 C   0  0  0  0  0  0  0  0  0  0  0  0
    2.7235    8.7846   22.7201 C   0  0  0  0  0  0  0  0  0  0  0  0
    2.5670    8.5330   21.3597 C   0  0  0  0  0  0  0  0  0  0  0  0
    2.0742    6.3773   20.2335 C   0  0  0  0  0  0  0  0  0  0  0  0
    0.9406    5.6672   20.0320 C   0  0  0  0  0  0  0  0  0  0  0  0
    0.7495    4.4465   19.2580 C   0  0  0  0  0  0  0  0  0  0  0  0
  1  4  1  0
  2  8  1  0
  2 12  1  0
  2 13  1  0
  3 15  1  0
  4  7  2  0
  4 12  1  0
  5  8  2  0
  5 14  1  0
  6 15  2  0
  7  9  1  0
  9 10  2  0
 10 11  1  0
 11 12  2  0
 13 14  2  0
 14 15  1  0
M  CHG  1   3  -1
M  END
$$$$
