CypD-x0910-pandda-model
     RDKit          3D

 12 13  0  0  0  0  0  0  0  0999 V2000
   -9.5057   12.2339  -13.3294 C   0  0  0  0  0  0  0  0  0  0  0  0
  -10.1767   10.0320  -10.5318 N   0  0  0  0  0  0  0  0  0  0  0  0
   -9.6721   11.5336  -11.9978 C   0  0  0  0  0  0  0  0  0  0  0  0
   -9.6881   11.0649   -9.8204 N   0  0  0  0  0  0  0  0  0  0  0  0
  -10.1615   10.2906  -11.8480 C   0  0  0  0  0  0  0  0  0  0  0  0
   -7.9017   15.7930   -9.3681 N   0  0  0  0  0  0  0  0  0  0  0  0
   -9.3938   11.9935  -10.6997 C   0  0  0  0  0  0  0  0  0  0  0  0
   -8.8777   13.2848  -10.2900 C   0  0  0  0  0  0  0  0  0  0  0  0
   -8.1815   13.4338   -9.0985 C   0  0  0  0  0  0  0  0  0  0  0  0
   -7.7328   14.6724   -8.6875 C   0  0  0  0  0  0  0  0  0  0  0  0
   -8.5646   15.6598  -10.5071 C   0  0  0  0  0  0  0  0  0  0  0  0
   -9.0631   14.4678  -10.9935 C   0  0  0  0  0  0  0  0  0  0  0  0
  1  3  1  0
  2  4  1  0
  2  5  1  0
  3  5  2  0
  3  7  1  0
  4  7  2  0
  6 10  2  0
  6 11  1  0
  7  8  1  0
  8  9  2  0
  8 12  1  0
  9 10  1  0
 11 12  2  0
M  END
$$$$
