CypD-x0697-pandda-model
     RDKit          3D

 10 10  0  0  0  0  0  0  0  0999 V2000
   -1.1730    7.5610   -0.3230 C   0  0  0  0  0  0  0  0  0  0  0  0
    0.5040    7.9690    6.4370 N   0  0  0  0  0  0  0  0  0  0  0  0
   -0.7920    7.3770    2.0290 O   0  0  0  0  0  0  0  0  0  0  0  0
   -1.3000    6.6750    0.9130 C   0  0  0  0  0  0  0  0  0  0  0  0
    0.8240    9.0120    5.6340 N   0  0  0  0  0  0  0  0  0  0  0  0
   -1.0830    5.6480    3.3620 O   0  0  0  0  0  0  0  0  0  0  0  0
   -0.6990    6.7950    3.2280 C   0  0  0  0  0  0  0  0  0  0  0  0
   -0.1350    7.5530    4.3140 C   0  0  0  0  0  0  0  0  0  0  0  0
   -0.0460    7.1060    5.6350 C   0  0  0  0  0  0  0  0  0  0  0  0
    0.4350    8.7910    4.3690 C   0  0  0  0  0  0  0  0  0  0  0  0
  1  4  1  0
  2  5  1  0
  2  9  2  0
  3  4  1  0
  3  7  1  0
  5 10  1  0
  6  7  2  0
  7  8  1  0
  8  9  1  0
  8 10  2  0
M  END
$$$$
