CypD-x0189-pandda-model
     RDKit          3D

 17 18  0  0  0  0  0  0  0  0999 V2000
    5.3130   10.6440   14.4250 C   0  0  0  0  0  0  0  0  0  0  0  0
    2.3880   10.9740   10.3920 N   0  0  0  0  0  0  0  0  0  0  0  0
    6.3980   10.4120   13.8600 O   0  0  0  0  0  0  0  0  0  0  0  0
    4.1210   11.1160   13.7290 C   0  0  0  0  0  0  0  0  0  0  0  0
    1.1550   10.5580    6.4840 N   0  0  0  0  0  0  0  0  0  0  0  0
    5.2680   10.4480   15.6590 O   0  0  0  0  0  0  0  0  0  0  0  0
    3.1650   11.8790   14.4050 C   0  0  0  0  0  0  0  0  0  0  0  0
    3.8240    9.3510    9.7690 O   0  0  0  0  0  0  0  0  0  0  0  0
    2.0130   12.3140   13.7830 C   0  0  0  0  0  0  0  0  0  0  0  0
    1.3060   10.6560    7.7850 O   0  0  0  0  0  0  0  0  0  0  0  0
    1.7860   11.9980   12.4610 C   0  0  0  0  0  0  0  0  0  0  0  0
    2.7020   11.2460   11.7370 C   0  0  0  0  0  0  0  0  0  0  0  0
    2.9530   10.1410    9.4540 C   0  0  0  0  0  0  0  0  0  0  0  0
    2.5080   10.1860    8.0850 C   0  0  0  0  0  0  0  0  0  0  0  0
    3.1390    9.7970    6.9570 C   0  0  0  0  0  0  0  0  0  0  0  0
    2.2240   10.0670    5.9720 C   0  0  0  0  0  0  0  0  0  0  0  0
    3.8660   10.8290   12.3850 C   0  0  0  0  0  0  0  0  0  0  0  0
  1  3  1  0
  1  4  1  0
  1  6  2  0
  2 12  1  0
  2 13  1  0
  4  7  2  0
  4 17  1  0
  5 10  1  0
  5 16  2  0
  7  9  1  0
  8 13  2  0
  9 11  2  0
 10 14  1  0
 11 12  1  0
 12 17  2  0
 13 14  1  0
 14 15  2  0
 15 16  1  0
M  CHG  1   3  -1
M  END
$$$$
