CypD-x0074-pandda-model
     RDKit          3D

 13 13  0  0  0  0  0  0  0  0999 V2000
  -23.5778    1.5514   -7.0535 C   0  0  0  0  0  0  0  0  0  0  0  0
  -23.0305    2.9527   -8.8921 O   0  0  0  0  0  0  0  0  0  0  0  0
  -23.5194    1.6693   -8.5738 C   0  0  0  0  0  0  0  0  0  0  0  0
  -22.2149    7.1942  -14.7595 O   0  0  0  0  0  0  0  0  0  0  0  0
  -23.0155    3.3979  -10.1715 C   0  0  0  0  0  0  0  0  0  0  0  0
  -20.8304    5.6196  -14.3312 O   0  0  0  0  0  0  0  0  0  0  0  0
  -22.8512    4.7586  -10.3606 C   0  0  0  0  0  0  0  0  0  0  0  0
  -22.8800    5.2991  -11.6331 C   0  0  0  0  0  0  0  0  0  0  0  0
  -23.0736    4.4822  -12.7365 C   0  0  0  0  0  0  0  0  0  0  0  0
  -23.1422    5.0933  -14.1357 C   0  0  0  0  0  0  0  0  0  0  0  0
  -21.9928    6.0274  -14.4428 C   0  0  0  0  0  0  0  0  0  0  0  0
  -23.2214    3.1166  -12.5505 C   0  0  0  0  0  0  0  0  0  0  0  0
  -23.1895    2.5722  -11.2780 C   0  0  0  0  0  0  0  0  0  0  0  0
  1  3  1  0
  2  3  1  0
  2  5  1  0
  4 11  1  0
  5  7  2  0
  5 13  1  0
  6 11  2  0
  7  8  1  0
  8  9  2  0
  9 10  1  0
  9 12  1  0
 10 11  1  0
 12 13  2  0
M  CHG  1   4  -1
M  END
$$$$
