CypD-x0751-pandda-model
     RDKit          3D

 12 12  0  0  1  0  0  0  0  0999 V2000
    3.6210   22.0830   16.5910 C   0  0  0  0  0  0  0  0  0  0  0  0
    4.3260   21.6270   14.2350 N   0  0  0  0  0  0  0  0  0  0  0  0
    4.5980   20.1010   15.8710 O   0  0  0  0  0  0  0  0  0  0  0  0
    4.2310   21.1990   15.5290 C   0  0  0  0  0  0  0  0  0  0  0  0
    4.8360   18.5030   11.0370 N   0  0  0  0  0  0  0  0  0  0  0  0
    5.7430   20.2470   10.0570 O   0  0  0  0  0  0  0  0  0  0  0  0
    3.7100   22.8950   13.7450 C   0  0  0  0  0  0  0  0  0  0  0  0
    4.2680   23.3050   12.3800 C   0  0  0  0  0  0  0  0  0  0  0  0
    4.1070   22.2100   11.3140 C   0  0  0  0  0  0  0  0  0  0  0  0
    4.3040   20.7780   11.8800 C   0  0  2  0  0  0  0  0  0  0  0  0
    5.0480   20.7940   13.2190 C   0  0  0  0  0  0  0  0  0  0  0  0
    5.0150   19.8270   10.9200 C   0  0  0  0  0  0  0  0  0  0  0  0
  1  4  1  0
  2  4  1  0
  2  7  1  0
  2 11  1  0
  3  4  2  0
  5 12  1  0
  6 12  2  0
  7  8  1  0
  8  9  1  0
  9 10  1  0
 10 11  1  0
 10 12  1  6
M  END
$$$$
