CypD-x0568-pandda-model
     RDKit          3D

  9  9  0  0  0  0  0  0  0  0999 V2000
   -5.9944   12.2240   28.2402 C   0  0  0  0  0  0  0  0  0  0  0  0
   -8.2159    9.4299   26.4342 N   0  0  0  0  0  0  0  0  0  0  0  0
   -6.5125   12.5282   26.9821 O   0  0  0  0  0  0  0  0  0  0  0  0
   -9.4492   11.6007   26.7544 S   0  0  0  0  0  0  0  0  0  0  0  0
   -6.6994   11.4118   26.1552 C   0  0  0  0  0  0  0  0  0  0  0  0
   -9.5098    9.0797   26.6998 N   0  0  0  0  0  0  0  0  0  0  0  0
   -8.0093   10.6854   26.4325 C   0  0  0  0  0  0  0  0  0  0  0  0
  -11.6103   10.0712   27.1865 N   0  0  0  0  0  0  0  0  0  0  0  0
  -10.2803   10.0870   26.8994 C   0  0  0  0  0  0  0  0  0  0  0  0
  1  3  1  0
  2  6  1  0
  2  7  2  0
  3  5  1  0
  4  7  1  0
  4  9  1  0
  5  7  1  0
  6  9  2  0
  8  9  1  0
M  END
$$$$
