CypD-x0074-pandda-model
     RDKit          3D

 13 13  0  0  0  0  0  0  0  0999 V2000
  -23.3940    1.4300   -6.8520 C   0  0  0  0  0  0  0  0  0  0  0  0
  -23.1160    2.8200   -8.7510 O   0  0  0  0  0  0  0  0  0  0  0  0
  -23.4680    1.5100   -8.3730 C   0  0  0  0  0  0  0  0  0  0  0  0
  -23.1880    7.0610  -14.4950 O   0  0  0  0  0  0  0  0  0  0  0  0
  -23.1180    3.2110  -10.0490 C   0  0  0  0  0  0  0  0  0  0  0  0
  -21.2630    6.0790  -14.3130 O   0  0  0  0  0  0  0  0  0  0  0  0
  -22.8780    4.5510  -10.2960 C   0  0  0  0  0  0  0  0  0  0  0  0
  -22.8930    5.0440  -11.5870 C   0  0  0  0  0  0  0  0  0  0  0  0
  -23.1430    4.1980  -12.6590 C   0  0  0  0  0  0  0  0  0  0  0  0
  -23.2050    4.7240  -14.0950 C   0  0  0  0  0  0  0  0  0  0  0  0
  -22.5070    6.0470  -14.3230 C   0  0  0  0  0  0  0  0  0  0  0  0
  -23.3650    2.8510  -12.4150 C   0  0  0  0  0  0  0  0  0  0  0  0
  -23.3540    2.3550  -11.1220 C   0  0  0  0  0  0  0  0  0  0  0  0
  1  3  1  0
  2  3  1  0
  2  5  1  0
  4 11  1  0
  5  7  2  0
  5 13  1  0
  6 11  2  0
  7  8  1  0
  8  9  2  0
  9 10  1  0
  9 12  1  0
 10 11  1  0
 12 13  2  0
M  CHG  1   4  -1
M  END
$$$$
