CypD-x0402-pandda-model
     RDKit          3D

 14 14  0  0  0  0  0  0  0  0999 V2000
    1.8592   10.6139    8.1430 C   0  0  0  0  0  0  0  0  0  0  0  0
    2.0704   11.2992   10.4969 N   0  0  0  0  0  0  0  0  0  0  0  0
    3.6583   10.0006    9.4844 O   0  0  0  0  0  0  0  0  0  0  0  0
    2.6177   10.6188    9.4466 C   0  0  0  0  0  0  0  0  0  0  0  0
    6.4877   11.3228   13.0861 O   0  0  0  0  0  0  0  0  0  0  0  0
    2.5078   11.5232   11.8173 C   0  0  0  0  0  0  0  0  0  0  0  0
    5.9807   10.5918   14.9712 O   0  0  0  0  0  0  0  0  0  0  0  0
    1.6139   12.0703   12.7304 C   0  0  0  0  0  0  0  0  0  0  0  0
    1.9893   12.2814   14.0435 C   0  0  0  0  0  0  0  0  0  0  0  0
    3.2721   11.9564   14.4429 C   0  0  0  0  0  0  0  0  0  0  0  0
    4.2223   11.4395   13.5699 C   0  0  0  0  0  0  0  0  0  0  0  0
    3.7976   11.2350   12.2526 C   0  0  0  0  0  0  0  0  0  0  0  0
    5.5942   11.1473   13.9296 C   0  0  0  0  0  0  0  0  0  0  0  0
    3.5862   12.1943   15.6884 F   0  0  0  0  0  0  0  0  0  0  0  0
  1  4  1  0
  2  4  1  0
  2  6  1  0
  3  4  2  0
  5 13  1  0
  6  8  2  0
  6 12  1  0
  7 13  2  0
  8  9  1  0
  9 10  2  0
 10 11  1  0
 10 14  1  0
 11 12  2  0
 11 13  1  0
M  CHG  1   5  -1
M  END
$$$$
