CypD-x0596-pandda-model
     RDKit          3D

 12 12  0  0  1  0  0  0  0  0999 V2000
   10.4180   12.0710    8.4120 C   0  0  0  0  0  0  0  0  0  0  0  0
    7.9550   12.6000    9.5650 N   0  0  0  0  0  0  0  0  0  0  0  0
    8.9830   10.2980    9.7370 O   0  0  0  0  0  0  0  0  0  0  0  0
    9.3590   11.6910    9.7980 S   0  0  0  0  0  0  0  0  0  0  0  0
    8.1220   14.0500    9.4260 C   0  0  0  0  0  0  0  0  0  0  0  0
    5.8220   10.9600   10.3490 N   0  0  0  0  0  0  0  0  0  0  0  0
    9.9780   12.1550   11.0180 O   0  0  0  0  0  0  0  0  0  0  0  0
    7.4940   14.4140    8.0880 C   0  0  0  0  0  0  0  0  0  0  0  0
    5.3670   10.4010    8.2500 O   0  0  0  0  0  0  0  0  0  0  0  0
    6.4760   13.3100    7.8370 C   0  0  0  0  0  0  0  0  0  0  0  0
    7.0790   12.0740    8.4930 C   0  0  2  0  0  0  0  0  0  0  0  0
    6.0150   11.0780    9.0150 C   0  0  0  0  0  0  0  0  0  0  0  0
  1  4  1  0
  2  4  1  0
  2  5  1  0
  2 11  1  0
  3  4  2  0
  4  7  2  0
  5  8  1  0
  6 12  1  0
  8 10  1  0
  9 12  2  0
 10 11  1  0
 11 12  1  1
M  END
$$$$
