CypD-x0512-pandda-model
     RDKit          3D

 14 14  0  0  0  0  0  0  0  0999 V2000
  -10.5428   11.3477   -7.6126 C   0  0  0  0  0  0  0  0  0  0  0  0
   -9.3728   12.1017   -9.9832 N   0  0  0  0  0  0  0  0  0  0  0  0
   -9.4625    9.6521   -9.2683 O   0  0  0  0  0  0  0  0  0  0  0  0
  -10.2551   10.8542   -9.2971 S   0  0  0  0  0  0  0  0  0  0  0  0
   -7.8864   12.1666   -9.9137 C   0  0  0  0  0  0  0  0  0  0  0  0
  -11.5489   10.9067   -9.9448 O   0  0  0  0  0  0  0  0  0  0  0  0
   -7.5747   13.4043  -10.7750 C   0  0  0  0  0  0  0  0  0  0  0  0
   -7.3528   10.3840  -11.5437 O   0  0  0  0  0  0  0  0  0  0  0  0
   -8.1295   14.7445  -10.2460 C   0  0  0  0  0  0  0  0  0  0  0  0
   -5.9331   10.6448   -9.9449 O   0  0  0  0  0  0  0  0  0  0  0  0
   -7.7289   14.9880   -8.7871 C   0  0  0  0  0  0  0  0  0  0  0  0
   -8.0681   13.7899   -7.8949 C   0  0  0  0  0  0  0  0  0  0  0  0
   -7.4569   12.4960   -8.4630 C   0  0  0  0  0  0  0  0  0  0  0  0
   -7.0212   10.9586  -10.4916 C   0  0  0  0  0  0  0  0  0  0  0  0
  1  4  1  0
  2  4  1  0
  2  5  1  0
  3  4  2  0
  4  6  2  0
  5  7  1  0
  5 13  1  0
  5 14  1  0
  7  9  1  0
  8 14  1  0
  9 11  1  0
 10 14  2  0
 11 12  1  0
 12 13  1  0
M  CHG  1   8  -1
M  END
$$$$
