CypD-x0581-pandda-model
     RDKit          3D

 11 11  0  0  0  0  0  0  0  0999 V2000
  -19.2498   29.3950   -1.2442 C   0  0  0  0  0  0  0  0  0  0  0  0
  -20.6749   27.4194   -0.9304 N   0  0  0  0  0  0  0  0  0  0  0  0
  -20.5977   29.0628    0.6306 O   0  0  0  0  0  0  0  0  0  0  0  0
  -20.2462   28.6114   -0.4307 C   0  0  0  0  0  0  0  0  0  0  0  0
  -23.6949   24.7517    0.3676 N   0  0  0  0  0  0  0  0  0  0  0  0
  -21.6606   26.5427   -0.4662 C   0  0  0  0  0  0  0  0  0  0  0  0
  -22.8061   26.9734    0.1750 C   0  0  0  0  0  0  0  0  0  0  0  0
  -23.7689   26.0620    0.5574 C   0  0  0  0  0  0  0  0  0  0  0  0
  -22.5829   24.3509   -0.2388 C   0  0  0  0  0  0  0  0  0  0  0  0
  -21.5583   25.1770   -0.6717 C   0  0  0  0  0  0  0  0  0  0  0  0
  -20.3410   24.5823   -1.3638 C   0  0  0  0  0  0  0  0  0  0  0  0
  1  4  1  0
  2  4  1  0
  2  6  1  0
  3  4  2  0
  5  8  2  0
  5  9  1  0
  6  7  2  0
  6 10  1  0
  7  8  1  0
  9 10  2  0
 10 11  1  0
M  END
$$$$
