CypD-x0037-pandda-model
     RDKit          3D

 11 11  0  0  1  0  0  0  0  0999 V2000
   -2.3104   11.5519   -4.0890 C   0  0  0  0  0  0  0  0  0  0  0  0
   -4.2605   10.7309   -5.4173 N   0  0  0  0  0  0  0  0  0  0  0  0
   -4.5318   12.0467   -3.5933 O   0  0  0  0  0  0  0  0  0  0  0  0
   -3.7949   11.4681   -4.3593 C   0  0  0  0  0  0  0  0  0  0  0  0
   -4.6952   10.4743   -8.2115 O   0  0  0  0  0  0  0  0  0  0  0  0
   -5.6255   10.9291   -5.9879 C   0  0  0  0  0  0  0  0  0  0  0  0
   -2.3200   10.0503   -9.8382 O   0  0  0  0  0  0  0  0  0  0  0  0
   -5.5324   11.3390   -7.4731 C   0  0  0  0  0  0  0  0  0  0  0  0
   -3.3892   10.3594   -7.7001 C   0  0  2  0  0  0  0  0  0  0  0  0
   -2.5670    9.4402   -8.6119 C   0  0  0  0  0  0  0  0  0  0  0  0
   -3.4326    9.8231   -6.2605 C   0  0  0  0  0  0  0  0  0  0  0  0
  1  4  1  0
  2  4  1  0
  2  6  1  0
  2 11  1  0
  3  4  2  0
  5  8  1  0
  5  9  1  0
  6  8  1  0
  7 10  1  0
  9 10  1  6
  9 11  1  0
M  END
$$$$
