CypD-x0286-pandda-model
     RDKit          3D

 11 11  0  0  0  0  0  0  0  0999 V2000
   -7.4930   13.4380   -7.5910 C   0  0  0  0  0  0  0  0  0  0  0  0
   -7.2390   12.3880   -9.8730 N   0  0  0  0  0  0  0  0  0  0  0  0
   -9.7720   11.4310  -13.4380 O   0  0  0  0  0  0  0  0  0  0  0  0
   -6.5670   12.7050   -8.5740 C   0  0  0  0  0  0  0  0  0  0  0  0
   -7.3580   11.7580  -11.9050 N   0  0  0  0  0  0  0  0  0  0  0  0
  -10.7300   12.9170  -12.2370 O   0  0  0  0  0  0  0  0  0  0  0  0
   -5.9920   11.4400   -7.9170 C   0  0  0  0  0  0  0  0  0  0  0  0
   -6.5570   11.8820  -10.9090 N   0  0  0  0  0  0  0  0  0  0  0  0
   -8.5030   12.5870  -10.2480 C   0  0  0  0  0  0  0  0  0  0  0  0
   -8.5890   12.1810  -11.5370 C   0  0  0  0  0  0  0  0  0  0  0  0
   -9.7400   12.1760  -12.4330 C   0  0  0  0  0  0  0  0  0  0  0  0
  1  4  1  0
  2  4  1  0
  2  8  1  0
  2  9  1  0
  3 11  1  0
  4  7  1  0
  5  8  2  0
  5 10  1  0
  6 11  2  0
  9 10  2  0
 10 11  1  0
M  CHG  1   3  -1
M  END
$$$$
