CypD-x0537-pandda-model
     RDKit          3D

 12 12  0  0  0  0  0  0  0  0999 V2000
   -9.4736   10.1715  -10.5335 C   0  0  0  0  0  0  0  0  0  0  0  0
   -8.2561   10.3161   -9.7835 N   0  0  0  0  0  0  0  0  0  0  0  0
   -5.8955   11.1263   -9.4772 O   0  0  0  0  0  0  0  0  0  0  0  0
   -7.0605   11.2650  -10.3324 S   0  0  0  0  0  0  0  0  0  0  0  0
   -7.7376   12.9432  -10.1711 C   0  0  0  0  0  0  0  0  0  0  0  0
   -6.8744   10.9657  -11.7472 O   0  0  0  0  0  0  0  0  0  0  0  0
   -8.3871   13.5236  -11.2561 C   0  0  0  0  0  0  0  0  0  0  0  0
   -8.9088   14.8060  -11.1978 C   0  0  0  0  0  0  0  0  0  0  0  0
   -8.8040   15.5417  -10.0324 C   0  0  0  0  0  0  0  0  0  0  0  0
   -8.1847   14.9840   -8.9310 C   0  0  0  0  0  0  0  0  0  0  0  0
   -7.6630   13.7035   -9.0064 C   0  0  0  0  0  0  0  0  0  0  0  0
   -6.8966   13.1154   -7.5499 Cl  0  0  0  0  0  0  0  0  0  0  0  0
  1  2  1  0
  2  4  1  0
  3  4  2  0
  4  5  1  0
  4  6  2  0
  5  7  2  0
  5 11  1  0
  7  8  1  0
  8  9  2  0
  9 10  1  0
 10 11  2  0
 11 12  1  0
M  CHG  1   2  -1
M  END
$$$$
