CypD-x0879-pandda-model
     RDKit          3D

 13 13  0  0  0  0  0  0  0  0999 V2000
   -9.6903   18.3391  -10.1482 C   0  0  0  0  0  0  0  0  0  0  0  0
  -11.9058   18.4655   -9.1159 N   0  0  0  0  0  0  0  0  0  0  0  0
  -13.9304   17.9370   -9.9077 O   0  0  0  0  0  0  0  0  0  0  0  0
  -10.4800   18.1137   -8.8678 C   0  0  0  0  0  0  0  0  0  0  0  0
  -12.1283   13.4963   -6.8482 N   0  0  0  0  0  0  0  0  0  0  0  0
  -12.2334   19.9166   -9.0160 C   0  0  0  0  0  0  0  0  0  0  0  0
  -12.8569   17.5402   -9.4795 C   0  0  0  0  0  0  0  0  0  0  0  0
  -12.6407   16.1100   -9.3848 C   0  0  0  0  0  0  0  0  0  0  0  0
  -12.6955   15.3143  -10.5280 C   0  0  0  0  0  0  0  0  0  0  0  0
  -12.5511   13.9418  -10.4526 C   0  0  0  0  0  0  0  0  0  0  0  0
  -12.3518   13.3389   -9.2271 C   0  0  0  0  0  0  0  0  0  0  0  0
  -12.2905   14.1050   -8.0722 C   0  0  0  0  0  0  0  0  0  0  0  0
  -12.4195   15.4812   -8.1633 C   0  0  0  0  0  0  0  0  0  0  0  0
  1  4  1  0
  2  4  1  0
  2  6  1  0
  2  7  1  0
  3  7  2  0
  5 12  1  0
  7  8  1  0
  8  9  2  0
  8 13  1  0
  9 10  1  0
 10 11  2  0
 11 12  1  0
 12 13  2  0
M  END
$$$$
