CypD-x0721-pandda-model
     RDKit          3D

 14 14  0  0  0  0  0  0  0  0999 V2000
   -4.0120   16.8280    5.5480 C   0  0  0  0  0  0  0  0  0  0  0  0
   -3.5730   19.0150    4.5630 N   0  0  0  0  0  0  0  0  0  0  0  0
   -1.2880   22.9640    5.6550 O   0  0  0  0  0  0  0  0  0  0  0  0
   -3.2610   17.5700    4.4540 C   0  0  0  0  0  0  0  0  0  0  0  0
   -2.9360   21.8560    4.6200 N   0  0  0  0  0  0  0  0  0  0  0  0
   -1.7590   17.2930    4.5480 C   0  0  0  0  0  0  0  0  0  0  0  0
   -3.0420   19.6740    5.8140 C   0  0  0  0  0  0  0  0  0  0  0  0
   -3.3990   21.1690    5.8620 C   0  0  0  0  0  0  0  0  0  0  0  0
   -3.5230   21.2660    3.3820 C   0  0  0  0  0  0  0  0  0  0  0  0
   -3.1990   19.7620    3.3050 C   0  0  0  0  0  0  0  0  0  0  0  0
   -1.9370   22.7940    4.6460 C   0  0  0  0  0  0  0  0  0  0  0  0
   -1.5940   23.6380    3.4060 C   0  0  0  0  0  0  0  0  0  0  0  0
   -0.5320   22.9460    2.5330 C   0  0  0  0  0  0  0  0  0  0  0  0
   -1.1120   25.0540    3.7700 C   0  0  0  0  0  0  0  0  0  0  0  0
  1  4  1  0
  2  4  1  0
  2  7  1  0
  2 10  1  0
  3 11  2  0
  4  6  1  0
  5  8  1  0
  5  9  1  0
  5 11  1  0
  7  8  1  0
  9 10  1  0
 11 12  1  0
 12 13  1  0
 12 14  1  0
M  CHG  1   2   1
M  END
$$$$
