CypD-x0822-pandda-model
     RDKit          3D

 13 14  0  0  0  0  0  0  0  0999 V2000
   -1.0293   13.9005    0.0530 C   0  0  0  0  0  0  0  0  0  0  0  0
   -1.9550   14.4040    2.3097 N   0  0  0  0  0  0  0  0  0  0  0  0
   -2.9567   12.9215    0.9481 O   0  0  0  0  0  0  0  0  0  0  0  0
   -2.0574   13.7076    1.1426 C   0  0  0  0  0  0  0  0  0  0  0  0
   -4.3706   17.9291    6.5379 N   0  0  0  0  0  0  0  0  0  0  0  0
   -1.2512   15.7169    2.3968 C   0  0  0  0  0  0  0  0  0  0  0  0
   -1.9951   16.4482    3.4848 C   0  0  0  0  0  0  0  0  0  0  0  0
   -1.8161   17.7466    3.9283 C   0  0  0  0  0  0  0  0  0  0  0  0
   -2.6153   18.2254    4.9488 C   0  0  0  0  0  0  0  0  0  0  0  0
   -3.5920   17.4222    5.5225 C   0  0  0  0  0  0  0  0  0  0  0  0
   -3.7650   16.1235    5.0618 C   0  0  0  0  0  0  0  0  0  0  0  0
   -2.9681   15.6551    4.0371 C   0  0  0  0  0  0  0  0  0  0  0  0
   -3.0229   14.3159    3.3514 C   0  0  0  0  0  0  0  0  0  0  0  0
  1  4  1  0
  2  4  1  0
  2  6  1  0
  2 13  1  0
  3  4  2  0
  5 10  1  0
  6  7  1  0
  7  8  2  0
  7 12  1  0
  8  9  1  0
  9 10  2  0
 10 11  1  0
 11 12  2  0
 12 13  1  0
M  END
$$$$
