CypD-x0516-pandda-model
     RDKit          3D

 14 15  0  0  1  0  0  0  0  0999 V2000
   -1.1770   25.1160    5.4370 C   0  0  0  0  0  0  0  0  0  0  0  0
   -2.2180   22.9140    5.5590 N   0  0  0  0  0  0  0  0  0  0  0  0
   -0.7180   23.5590    7.1260 O   0  0  0  0  0  0  0  0  0  0  0  0
   -1.3540   23.7870    6.1230 C   0  0  0  0  0  0  0  0  0  0  0  0
   -3.8350   19.6370    6.7160 N   0  0  0  0  0  0  0  0  0  0  0  0
   -2.3330   21.4480    5.7760 C   0  0  1  0  0  0  0  0  0  0  0  0
   -3.5470   21.1060    6.6600 C   0  0  0  0  0  0  0  0  0  0  0  0
   -3.3650   18.7930    5.7120 C   0  0  0  0  0  0  0  0  0  0  0  0
   -3.5400   17.4230    5.8590 C   0  0  0  0  0  0  0  0  0  0  0  0
   -3.1000   16.5410    4.8900 C   0  0  0  0  0  0  0  0  0  0  0  0
   -2.4710   17.0250    3.7560 C   0  0  0  0  0  0  0  0  0  0  0  0
   -2.2850   18.3890    3.6000 C   0  0  0  0  0  0  0  0  0  0  0  0
   -2.7200   19.2730    4.5740 C   0  0  0  0  0  0  0  0  0  0  0  0
   -2.4830   20.7670    4.4080 C   0  0  0  0  0  0  0  0  0  0  0  0
  1  4  1  0
  2  4  1  0
  6  2  1  6
  3  4  2  0
  5  7  1  0
  5  8  1  0
  6  7  1  0
  6 14  1  0
  8  9  2  0
  8 13  1  0
  9 10  1  0
 10 11  2  0
 11 12  1  0
 12 13  2  0
 13 14  1  0
M  END
$$$$
