CypD-x0935-pandda-model
     RDKit          3D

 12 13  0  0  0  0  0  0  0  0999 V2000
   -5.1741   18.8637    4.9014 C   0  0  0  0  0  0  0  0  0  0  0  0
   -6.2912   18.9928    5.0864 N   0  0  0  0  0  0  0  0  0  0  0  0
   -3.6753   18.7746    4.7921 C   0  0  0  0  0  0  0  0  0  0  0  0
   -2.8418   21.5593    4.4112 N   0  0  0  0  0  0  0  0  0  0  0  0
   -3.0885   19.6440    5.9230 C   0  0  0  0  0  0  0  0  0  0  0  0
   -3.3601   21.1310    5.7263 C   0  0  0  0  0  0  0  0  0  0  0  0
   -3.4611   20.8398    3.2767 C   0  0  0  0  0  0  0  0  0  0  0  0
   -3.1954   19.3409    3.4288 C   0  0  0  0  0  0  0  0  0  0  0  0
   -3.2667   17.2948    5.0419 C   0  0  0  0  0  0  0  0  0  0  0  0
   -3.3804   16.2757    3.8704 C   0  0  0  0  0  0  0  0  0  0  0  0
   -2.1176   15.5876    4.4427 C   0  0  0  0  0  0  0  0  0  0  0  0
   -1.7494   16.9505    5.0839 C   0  0  0  0  0  0  0  0  0  0  0  0
  1  2  3  0
  1  3  1  0
  3  5  1  0
  3  8  1  0
  3  9  1  0
  4  6  1  0
  4  7  1  0
  5  6  1  0
  7  8  1  0
  9 10  1  0
  9 12  1  0
 10 11  1  0
 11 12  1  0
M  CHG  1   4   1
M  END
$$$$
