CypD-x0086-pandda-model
     RDKit          3D

 15 16  0  0  1  0  0  0  0  0999 V2000
    4.4670   23.8190   21.3950 C   0  0  0  0  0  0  0  0  0  0  0  0
    2.2560   22.6700   18.4070 N   0  0  1  0  0  0  0  0  0  0  0  0
    5.4990   24.3410   20.6100 O   0  0  0  0  0  0  0  0  0  0  0  0
    3.6010   22.8550   20.5710 C   0  0  2  0  0  0  0  0  0  0  0  0
    4.4090   21.8000   20.1170 O   0  0  0  0  0  0  0  0  0  0  0  0
    2.9610   23.5860   19.3640 C   0  0  0  0  0  0  0  0  0  0  0  0
    1.9200   23.3260   17.1140 C   0  0  0  0  0  0  0  0  0  0  0  0
    0.4850   23.8250   17.0490 C   0  0  0  0  0  0  0  0  0  0  0  0
   -0.1440   24.4820   18.1000 C   0  0  0  0  0  0  0  0  0  0  0  0
   -1.4290   24.9740   17.9480 C   0  0  0  0  0  0  0  0  0  0  0  0
   -2.0970   24.8180   16.7480 C   0  0  0  0  0  0  0  0  0  0  0  0
   -1.4870   24.1520   15.7020 C   0  0  0  0  0  0  0  0  0  0  0  0
   -0.2070   23.6510   15.8580 C   0  0  0  0  0  0  0  0  0  0  0  0
    3.0680   21.4480   18.1250 C   0  0  0  0  0  0  0  0  0  0  0  0
    3.6820   20.8410   19.3900 C   0  0  0  0  0  0  0  0  0  0  0  0
  1  3  1  0
  4  1  1  6
  2  6  1  0
  2  7  1  6
  2 14  1  0
  4  5  1  0
  4  6  1  0
  5 15  1  0
  7  8  1  0
  8  9  2  0
  8 13  1  0
  9 10  1  0
 10 11  2  0
 11 12  1  0
 12 13  2  0
 14 15  1  0
M  CHG  1   2   1
M  END
$$$$
