CypD-x0478-pandda-model
     RDKit          3D

 14 15  0  0  1  0  0  0  0  0999 V2000
   -3.0145   16.3913    4.1193 C   0  0  0  0  0  0  0  0  0  0  0  0
   -3.1298   17.8042    4.6011 N   0  0  0  0  0  0  0  0  0  0  0  0
   -0.1706   21.5833    5.7500 O   0  0  0  0  0  0  0  0  0  0  0  0
   -2.0927   18.0916    5.6584 C   0  0  0  0  0  0  0  0  0  0  0  0
   -1.9540   20.4802    4.9248 N   0  0  0  0  0  0  0  0  0  0  0  0
   -2.0235   23.1922    3.4343 O   0  0  0  0  0  0  0  0  0  0  0  0
   -2.0876   19.5663    6.1031 C   0  0  0  0  0  0  0  0  0  0  0  0
   -3.0106   20.2480    3.8791 C   0  0  0  0  0  0  0  0  0  0  0  0
   -3.0465   18.7685    3.4390 C   0  0  0  0  0  0  0  0  0  0  0  0
   -0.9846   21.4619    4.8524 C   0  0  0  0  0  0  0  0  0  0  0  0
   -0.8809   22.3990    3.6203 C   0  0  2  0  0  0  0  0  0  0  0  0
    0.2549   23.4182    3.6394 C   0  0  0  0  0  0  0  0  0  0  0  0
   -0.2143   24.4537    2.6325 C   0  0  0  0  0  0  0  0  0  0  0  0
   -1.7264   24.2459    2.5642 C   0  0  0  0  0  0  0  0  0  0  0  0
  1  2  1  0
  2  4  1  0
  2  9  1  0
  3 10  2  0
  4  7  1  0
  5  7  1  0
  5  8  1  0
  5 10  1  0
  6 11  1  0
  6 14  1  0
  8  9  1  0
 11 10  1  1
 11 12  1  0
 12 13  1  0
 13 14  1  0
M  CHG  1   2   1
M  END
$$$$
