CypD-x0698-pandda-model
     RDKit          3D

 15 16  0  0  0  0  0  0  0  0999 V2000
    0.0720   17.7510    1.3370 C   0  0  0  0  0  0  0  0  0  0  0  0
   -2.4390   20.1400    4.9510 N   0  0  0  0  0  0  0  0  0  0  0  0
   -0.3320   18.1440    2.6310 O   0  0  0  0  0  0  0  0  0  0  0  0
   -1.1090   17.3400    3.4050 C   0  0  0  0  0  0  0  0  0  0  0  0
   -4.1190   22.3720    4.0470 N   0  0  0  0  0  0  0  0  0  0  0  0
   -1.4550   16.0450    3.0230 C   0  0  0  0  0  0  0  0  0  0  0  0
   -2.2810   15.2790    3.8230 C   0  0  0  0  0  0  0  0  0  0  0  0
   -2.7640   15.7980    5.0080 C   0  0  0  0  0  0  0  0  0  0  0  0
   -2.4000   17.0700    5.4100 C   0  0  0  0  0  0  0  0  0  0  0  0
   -1.5810   17.8540    4.6120 C   0  0  0  0  0  0  0  0  0  0  0  0
   -1.2420   19.2750    5.0560 C   0  0  0  0  0  0  0  0  0  0  0  0
   -2.2120   21.5130    5.4600 C   0  0  0  0  0  0  0  0  0  0  0  0
   -3.5070   22.3640    5.4090 C   0  0  0  0  0  0  0  0  0  0  0  0
   -4.2440   21.0120    3.4580 C   0  0  0  0  0  0  0  0  0  0  0  0
   -2.9410   20.2020    3.5550 C   0  0  0  0  0  0  0  0  0  0  0  0
  1  3  1  0
  2 11  1  0
  2 12  1  0
  2 15  1  0
  3  4  1  0
  4  6  2  0
  4 10  1  0
  5 13  1  0
  5 14  1  0
  6  7  1  0
  7  8  2  0
  8  9  1  0
  9 10  2  0
 10 11  1  0
 12 13  1  0
 14 15  1  0
M  CHG  1   5   1
M  END
$$$$
