CypD-x0141-pandda-model
     RDKit          3D

 15 15  0  0  0  0  0  0  0  0999 V2000
   -3.1896   24.4353    3.2099 C   0  0  0  0  0  0  0  0  0  0  0  0
   -3.9151   23.4280    4.0198 N   0  0  0  0  0  0  0  0  0  0  0  0
   -2.2457   22.7286    5.3479 O   0  0  0  0  0  0  0  0  0  0  0  0
   -3.3974   22.6175    4.9784 C   0  0  0  0  0  0  0  0  0  0  0  0
   -4.0944   20.1248    5.0863 N   0  0  0  0  0  0  0  0  0  0  0  0
   -4.2978   21.5253    5.5719 C   0  0  0  0  0  0  0  0  0  0  0  0
   -3.3040   19.3398    6.0457 C   0  0  0  0  0  0  0  0  0  0  0  0
   -3.4019   17.8467    5.7172 C   0  0  0  0  0  0  0  0  0  0  0  0
   -3.1624   17.5870    4.2328 C   0  0  0  0  0  0  0  0  0  0  0  0
   -3.2199   18.6033    3.3553 C   0  0  0  0  0  0  0  0  0  0  0  0
   -3.5247   20.0463    3.7197 C   0  0  0  0  0  0  0  0  0  0  0  0
   -2.8671   16.1197    3.9040 C   0  0  0  0  0  0  0  0  0  0  0  0
   -2.6023   15.9221    2.6200 F   0  0  0  0  0  0  0  0  0  0  0  0
   -1.8130   15.6604    4.5704 F   0  0  0  0  0  0  0  0  0  0  0  0
   -3.8776   15.3161    4.2085 F   0  0  0  0  0  0  0  0  0  0  0  0
  1  2  1  0
  2  4  1  0
  3  4  2  0
  4  6  1  0
  5  6  1  0
  5  7  1  0
  5 11  1  0
  7  8  1  0
  8  9  1  0
  9 10  2  0
  9 12  1  0
 10 11  1  0
 12 13  1  0
 12 14  1  0
 12 15  1  0
M  END
$$$$
