CypD-x0843-pandda-model
     RDKit          3D

 15 16  0  0  1  0  0  0  0  0999 V2000
   -3.2950   20.7408    7.0843 C   0  0  0  0  0  0  0  0  0  0  0  0
   -3.4679   18.5392    4.8638 N   0  0  2  0  0  0  0  0  0  0  0  0
   -2.1387   20.0287    6.3584 C   0  0  1  0  0  0  0  0  0  0  0  0
   -1.3530   22.1748    5.3265 N   0  0  0  0  0  0  0  0  0  0  0  0
   -2.5088   18.5887    6.0038 C   0  0  0  0  0  0  0  0  0  0  0  0
    0.7842   23.7846    7.7298 N   0  0  0  0  0  0  0  0  0  0  0  0
   -3.8803   17.1347    4.6046 C   0  0  0  0  0  0  0  0  0  0  0  0
    1.3662   22.5737    7.5946 N   0  0  0  0  0  0  0  0  0  0  0  0
   -2.9490   19.1937    3.6264 C   0  0  0  0  0  0  0  0  0  0  0  0
   -2.5889   20.6430    3.9220 C   0  0  0  0  0  0  0  0  0  0  0  0
   -1.6154   20.7452    5.0948 C   0  0  2  0  0  0  0  0  0  0  0  0
   -0.3649   22.5177    6.2779 C   0  0  0  0  0  0  0  0  0  0  0  0
   -0.2411   23.7427    6.9284 C   0  0  0  0  0  0  0  0  0  0  0  0
    2.6500   22.2402    8.2337 C   0  0  0  0  0  0  0  0  0  0  0  0
    0.6769   21.7925    6.7327 C   0  0  0  0  0  0  0  0  0  0  0  0
  3  1  1  6
  2  5  1  0
  2  7  1  6
  2  9  1  0
  3  5  1  0
  3 11  1  0
 11  4  1  1
  4 12  1  0
  6  8  1  0
  6 13  2  0
  8 14  1  0
  8 15  1  0
  9 10  1  0
 10 11  1  0
 12 13  1  0
 12 15  2  0
M  CHG  1   2   1
M  END
$$$$
