CypD-x0504-pandda-model
     RDKit          3D

 11 11  0  0  0  0  0  0  0  0999 V2000
   -2.9977   16.5919    4.1263 C   0  0  0  0  0  0  0  0  0  0  0  0
   -2.8631   18.0199    4.5368 N   0  0  0  0  0  0  0  0  0  0  0  0
    0.7948   21.0705    5.4365 O   0  0  0  0  0  0  0  0  0  0  0  0
   -2.6131   18.9076    3.3431 C   0  0  0  0  0  0  0  0  0  0  0  0
   -1.2955   20.4866    4.7944 N   0  0  0  0  0  0  0  0  0  0  0  0
    0.9079   23.3460    3.9712 O   0  0  0  0  0  0  0  0  0  0  0  0
   -2.3433   20.3820    3.7238 C   0  0  0  0  0  0  0  0  0  0  0  0
   -1.5982   19.6554    5.9989 C   0  0  0  0  0  0  0  0  0  0  0  0
   -1.8320   18.1842    5.6208 C   0  0  0  0  0  0  0  0  0  0  0  0
   -0.1649   21.2662    4.7134 C   0  0  0  0  0  0  0  0  0  0  0  0
   -0.1158   22.4258    3.7000 C   0  0  0  0  0  0  0  0  0  0  0  0
  1  2  1  0
  2  4  1  0
  2  9  1  0
  3 10  2  0
  4  7  1  0
  5  7  1  0
  5  8  1  0
  5 10  1  0
  6 11  1  0
  8  9  1  0
 10 11  1  0
M  CHG  1   2   1
M  END
$$$$
