CypD-x0556-pandda-model
     RDKit          3D

 19 21  0  0  0  0  0  0  0  0999 V2000
    0.0450   19.5810    0.0820 C   0  0  0  0  0  0  0  0  0  0  0  0
   -1.0730   20.0150    0.7550 N   0  0  0  0  0  0  0  0  0  0  0  0
    0.6630   18.6140    0.4830 O   0  0  0  0  0  0  0  0  0  0  0  0
   -1.7970   19.4820    1.8240 C   0  0  0  0  0  0  0  0  0  0  0  0
   -4.0720   18.1790    5.0760 N   0  0  0  0  0  0  0  0  0  0  0  0
   -2.6880   20.3370    2.4920 C   0  0  0  0  0  0  0  0  0  0  0  0
   -3.4290   19.8900    3.5510 C   0  0  0  0  0  0  0  0  0  0  0  0
   -3.3280   18.5660    4.0090 C   0  0  0  0  0  0  0  0  0  0  0  0
   -3.9190   16.9520    5.4830 C   0  0  0  0  0  0  0  0  0  0  0  0
   -3.0840   16.0080    4.8690 C   0  0  0  0  0  0  0  0  0  0  0  0
   -2.3440   16.3700    3.7870 C   0  0  0  0  0  0  0  0  0  0  0  0
   -2.4480   17.6940    3.3320 C   0  0  0  0  0  0  0  0  0  0  0  0
   -1.7090   18.1750    2.2400 C   0  0  0  0  0  0  0  0  0  0  0  0
    0.4570   20.2680   -1.1300 C   0  0  0  0  0  0  0  0  0  0  0  0
    1.1440   19.5840   -2.1350 C   0  0  0  0  0  0  0  0  0  0  0  0
    1.5230   20.2080   -3.3090 C   0  0  0  0  0  0  0  0  0  0  0  0
    1.2250   21.5430   -3.5080 C   0  0  0  0  0  0  0  0  0  0  0  0
    0.5540   22.2480   -2.5270 C   0  0  0  0  0  0  0  0  0  0  0  0
    0.1780   21.6190   -1.3540 C   0  0  0  0  0  0  0  0  0  0  0  0
  1  2  1  0
  1  3  2  0
  1 14  1  0
  2  4  1  0
  4  6  1  0
  4 13  2  0
  5  8  2  0
  5  9  1  0
  6  7  2  0
  7  8  1  0
  8 12  1  0
  9 10  2  0
 10 11  1  0
 11 12  2  0
 12 13  1  0
 14 15  2  0
 14 19  1  0
 15 16  1  0
 16 17  2  0
 17 18  1  0
 18 19  2  0
M  END
$$$$
