CypD-x0896-pandda-model
     RDKit          3D

 10 11  0  0  1  0  0  0  0  0999 V2000
   -5.2180   18.9660    4.9660 C   0  0  0  0  0  0  0  0  0  0  0  0
   -5.1110   20.0290    4.1660 N   0  0  0  0  0  0  0  0  0  0  0  0
   -6.2560   18.6350    5.5040 O   0  0  0  0  0  0  0  0  0  0  0  0
   -3.7680   20.1110    3.5570 C   0  0  0  0  0  0  0  0  0  0  0  0
   -4.0330   18.3280    5.0960 N   0  0  0  0  0  0  0  0  0  0  0  0
   -3.0010   18.9530    4.2300 C   0  0  1  0  0  0  0  0  0  0  0  0
   -2.4260   17.9220    3.2490 C   0  0  0  0  0  0  0  0  0  0  0  0
   -2.0070   16.6270    3.9620 C   0  0  0  0  0  0  0  0  0  0  0  0
   -3.1970   16.0330    4.7310 C   0  0  0  0  0  0  0  0  0  0  0  0
   -3.7760   17.0210    5.7490 C   0  0  0  0  0  0  0  0  0  0  0  0
  1  2  1  0
  1  3  2  0
  1  5  1  0
  2  4  1  0
  6  4  1  6
  5  6  1  0
  5 10  1  0
  6  7  1  0
  7  8  1  0
  8  9  1  0
  9 10  1  0
M  END
$$$$
