CypD-x0141-pandda-model
     RDKit          3D

 15 15  0  0  0  0  0  0  0  0999 V2000
   -3.0772   24.5370    3.2506 C   0  0  0  0  0  0  0  0  0  0  0  0
   -3.8113   23.6044    4.1364 N   0  0  0  0  0  0  0  0  0  0  0  0
   -2.1797   23.0321    5.5893 O   0  0  0  0  0  0  0  0  0  0  0  0
   -3.3034   22.8608    5.1537 C   0  0  0  0  0  0  0  0  0  0  0  0
   -3.9855   20.3731    5.2662 N   0  0  0  0  0  0  0  0  0  0  0  0
   -4.2064   21.7672    5.7430 C   0  0  0  0  0  0  0  0  0  0  0  0
   -3.5643   20.3019    3.8529 C   0  0  0  0  0  0  0  0  0  0  0  0
   -3.6108   18.8470    3.3785 C   0  0  0  0  0  0  0  0  0  0  0  0
   -2.9728   17.8900    4.3829 C   0  0  0  0  0  0  0  0  0  0  0  0
   -2.6994   18.3139    5.6252 C   0  0  0  0  0  0  0  0  0  0  0  0
   -3.0139   19.7028    6.1417 C   0  0  0  0  0  0  0  0  0  0  0  0
   -2.7233   16.4750    3.8541 C   0  0  0  0  0  0  0  0  0  0  0  0
   -2.0092   16.4667    2.7371 F   0  0  0  0  0  0  0  0  0  0  0  0
   -3.8510   15.8269    3.5958 F   0  0  0  0  0  0  0  0  0  0  0  0
   -2.0615   15.7216    4.7204 F   0  0  0  0  0  0  0  0  0  0  0  0
  1  2  1  0
  2  4  1  0
  3  4  2  0
  4  6  1  0
  5  6  1  0
  5  7  1  0
  5 11  1  0
  7  8  1  0
  8  9  1  0
  9 10  2  0
  9 12  1  0
 10 11  1  0
 12 13  1  0
 12 14  1  0
 12 15  1  0
M  END
$$$$
