CypD-x0773-pandda-model
     RDKit          3D

 14 15  0  0  1  0  0  0  0  0999 V2000
   -4.0779   24.8689    4.1380 C   0  0  0  0  0  0  0  0  0  0  0  0
   -2.0741   23.8149    5.2598 N   0  0  0  0  0  0  0  0  0  0  0  0
   -4.0442   22.2683    5.0639 S   0  0  0  0  0  0  0  0  0  0  0  0
   -3.2718   23.7887    4.8242 C   0  0  0  0  0  0  0  0  0  0  0  0
   -1.6559   22.6161    5.7821 N   0  0  0  0  0  0  0  0  0  0  0  0
   -2.5505   21.7051    5.7285 C   0  0  0  0  0  0  0  0  0  0  0  0
   -2.2055   19.2628    5.0806 N   0  0  0  0  0  0  0  0  0  0  0  0
   -2.5054   20.2432    6.1623 C   0  0  0  0  0  0  0  0  0  0  0  0
   -2.8690   19.5381    3.7862 C   0  0  0  0  0  0  0  0  0  0  0  0
   -2.3897   18.5717    2.6902 C   0  0  0  0  0  0  0  0  0  0  0  0
   -2.1523   17.1276    3.1727 C   0  0  0  0  0  0  0  0  0  0  0  0
   -2.8931   16.8919    4.4847 C   0  0  2  0  0  0  0  0  0  0  0  0
   -2.4383   17.8758    5.5801 C   0  0  0  0  0  0  0  0  0  0  0  0
   -2.6283   15.6578    4.8941 F   0  0  0  0  0  0  0  0  0  0  0  0
  1  4  1  0
  2  4  2  0
  2  5  1  0
  3  4  1  0
  3  6  1  0
  5  6  2  0
  6  8  1  0
  7  8  1  0
  7  9  1  0
  7 13  1  0
  9 10  1  0
 10 11  1  0
 11 12  1  0
 12 13  1  0
 12 14  1  1
M  END
$$$$
