CypD-x0738-pandda-model
     RDKit          3D

 15 16  0  0  1  0  0  0  0  0999 V2000
   -3.7833   15.1437    4.2417 C   0  0  0  0  0  0  0  0  0  0  0  0
   -3.0191   16.3929    3.9545 N   0  0  0  0  0  0  0  0  0  0  0  0
   -4.7702   17.6594    4.6280 O   0  0  0  0  0  0  0  0  0  0  0  0
   -3.6035   17.5964    4.3072 C   0  0  0  0  0  0  0  0  0  0  0  0
   -4.2287   20.8345    4.2469 N   0  0  0  0  0  0  0  0  0  0  0  0
   -2.8195   18.9108    4.3377 C   0  0  1  0  0  0  0  0  0  0  0  0
   -2.7255   19.6076    2.9649 C   0  0  0  0  0  0  0  0  0  0  0  0
   -3.2788   21.0125    3.1456 C   0  0  0  0  0  0  0  0  0  0  0  0
   -3.5633   19.9286    5.2161 C   0  0  0  0  0  0  0  0  0  0  0  0
   -1.8506   16.1863    3.1966 C   0  0  0  0  0  0  0  0  0  0  0  0
   -0.8419   15.3610    3.6772 C   0  0  0  0  0  0  0  0  0  0  0  0
    0.2736   15.0637    2.9151 C   0  0  0  0  0  0  0  0  0  0  0  0
    0.4016   15.5985    1.6478 C   0  0  0  0  0  0  0  0  0  0  0  0
   -0.5875   16.4282    1.1505 C   0  0  0  0  0  0  0  0  0  0  0  0
   -1.7010   16.7115    1.9187 C   0  0  0  0  0  0  0  0  0  0  0  0
  1  2  1  0
  2  4  1  0
  2 10  1  0
  3  4  2  0
  6  4  1  6
  5  8  1  0
  5  9  1  0
  6  7  1  0
  6  9  1  0
  7  8  1  0
 10 11  2  0
 10 15  1  0
 11 12  1  0
 12 13  2  0
 13 14  1  0
 14 15  2  0
M  CHG  1   5   1
M  END
$$$$
