CypD-x0879-pandda-model
     RDKit          3D

 13 13  0  0  0  0  0  0  0  0999 V2000
   -0.5739   15.7183    3.1524 C   0  0  0  0  0  0  0  0  0  0  0  0
   -2.9003   16.3659    3.7310 N   0  0  0  0  0  0  0  0  0  0  0  0
   -4.5430   17.3535    4.9066 O   0  0  0  0  0  0  0  0  0  0  0  0
   -1.8328   16.4518    2.6972 C   0  0  0  0  0  0  0  0  0  0  0  0
   -1.4656   20.9968    6.9551 N   0  0  0  0  0  0  0  0  0  0  0  0
   -3.4553   14.9927    3.9158 C   0  0  0  0  0  0  0  0  0  0  0  0
   -3.4693   17.4705    4.3365 C   0  0  0  0  0  0  0  0  0  0  0  0
   -2.8520   18.7819    4.3699 C   0  0  0  0  0  0  0  0  0  0  0  0
   -2.8000   19.6322    3.2657 C   0  0  0  0  0  0  0  0  0  0  0  0
   -2.2777   20.9094    3.3757 C   0  0  0  0  0  0  0  0  0  0  0  0
   -1.8119   21.3688    4.5937 C   0  0  0  0  0  0  0  0  0  0  0  0
   -1.8560   20.5455    5.7097 C   0  0  0  0  0  0  0  0  0  0  0  0
   -2.3557   19.2608    5.5767 C   0  0  0  0  0  0  0  0  0  0  0  0
  1  4  1  0
  2  4  1  0
  2  6  1  0
  2  7  1  0
  3  7  2  0
  5 12  1  0
  7  8  1  0
  8  9  2  0
  8 13  1  0
  9 10  1  0
 10 11  2  0
 11 12  1  0
 12 13  2  0
M  END
$$$$
