CypD-x0195-pandda-model
     RDKit          3D

 14 14  0  0  1  0  0  0  0  0999 V2000
    5.4067   18.4887   11.1872 C   0  0  0  0  0  0  0  0  0  0  0  0
    3.2469   22.6252   12.2424 N   0  0  0  0  0  0  0  0  0  0  0  0
    5.3222   19.8499   10.9166 O   0  0  0  0  0  0  0  0  0  0  0  0
    4.5558   20.5127   11.8800 C   0  0  0  0  0  0  0  0  0  0  0  0
    1.4371   22.7629   16.1897 N   0  0  0  0  0  0  0  0  0  0  0  0
    4.4630   22.3573   10.3777 O   0  0  0  0  0  0  0  0  0  0  0  0
    4.0924   21.9042   11.4398 C   0  0  0  0  0  0  0  0  0  0  0  0
    3.1114   21.4677   16.7924 O   0  0  0  0  0  0  0  0  0  0  0  0
    3.1919   24.1185   12.1541 C   0  0  0  0  0  0  0  0  0  0  0  0
    3.0941   24.7733   13.5449 C   0  0  0  0  0  0  0  0  0  0  0  0
    3.8864   23.9923   14.6080 C   0  0  0  0  0  0  0  0  0  0  0  0
    3.4349   22.5130   14.7032 C   0  0  2  0  0  0  0  0  0  0  0  0
    2.6322   22.0610   13.4771 C   0  0  0  0  0  0  0  0  0  0  0  0
    2.6466   22.2155   15.9720 C   0  0  0  0  0  0  0  0  0  0  0  0
  1  3  1  0
  2  7  1  0
  2  9  1  0
  2 13  1  0
  3  4  1  0
  4  7  1  0
  5 14  1  0
  6  7  2  0
  8 14  2  0
  9 10  1  0
 10 11  1  0
 11 12  1  0
 12 13  1  0
 12 14  1  1
M  END
$$$$
