CypD-x0351-pandda-model
     RDKit          3D

 13 13  0  0  0  0  0  0  0  0999 V2000
   -3.5252   23.0677    5.0783 C   0  0  0  0  0  0  0  0  0  0  0  0
   -2.4683   22.7840    4.1176 N   0  0  0  0  0  0  0  0  0  0  0  0
   -0.5845   21.2554    3.3149 O   0  0  0  0  0  0  0  0  0  0  0  0
   -1.4117   21.5084    4.4692 S   0  0  0  0  0  0  0  0  0  0  0  0
   -2.9275   22.9093    2.7273 C   0  0  0  0  0  0  0  0  0  0  0  0
   -2.3879   20.1542    4.7165 N   0  0  0  0  0  0  0  0  0  0  0  0
   -0.8135   21.8324    5.7476 O   0  0  0  0  0  0  0  0  0  0  0  0
   -3.0162   19.9686    6.0454 C   0  0  0  0  0  0  0  0  0  0  0  0
   -3.2787   17.6644    5.0906 N   0  0  0  0  0  0  0  0  0  0  0  0
   -3.7207   18.5973    6.1750 C   0  0  0  0  0  0  0  0  0  0  0  0
   -3.7650   16.2772    5.2916 C   0  0  0  0  0  0  0  0  0  0  0  0
   -3.6530   18.2280    3.7497 C   0  0  0  0  0  0  0  0  0  0  0  0
   -3.1797   19.6908    3.5674 C   0  0  0  0  0  0  0  0  0  0  0  0
  1  2  1  0
  2  4  1  0
  2  5  1  0
  3  4  2  0
  4  6  1  0
  4  7  2  0
  6  8  1  0
  6 13  1  0
  8 10  1  0
  9 10  1  0
  9 11  1  0
  9 12  1  0
 12 13  1  0
M  CHG  1   9   1
M  END
$$$$
