CypD-x0713-pandda-model
     RDKit          3D

 10 10  0  0  1  0  0  0  0  0999 V2000
   -2.5287   15.8423    3.8967 C   0  0  0  0  0  0  0  0  0  0  0  0
   -4.3436   19.4406    5.2217 N   0  0  0  0  0  0  0  0  0  0  0  0
   -2.0392   21.5552    5.2397 O   0  0  0  0  0  0  0  0  0  0  0  0
   -3.3269   17.0800    4.3217 C   0  0  1  0  0  0  0  0  0  0  0  0
   -0.9244   19.6748    5.4910 N   0  0  0  0  0  0  0  0  0  0  0  0
   -3.3038   17.2629    5.8452 C   0  0  0  0  0  0  0  0  0  0  0  0
   -4.0611   18.5047    6.3298 C   0  0  0  0  0  0  0  0  0  0  0  0
   -3.1933   19.6806    4.2991 C   0  0  2  0  0  0  0  0  0  0  0  0
   -2.8313   18.3509    3.5951 C   0  0  0  0  0  0  0  0  0  0  0  0
   -1.9974   20.3639    5.0343 C   0  0  0  0  0  0  0  0  0  0  0  0
  4  1  1  1
  2  7  1  0
  2  8  1  0
  3 10  2  0
  4  6  1  0
  4  9  1  0
  5 10  1  0
  6  7  1  0
  8  9  1  0
  8 10  1  1
M  CHG  1   2   1
M  END
$$$$
