CypD-x0715-pandda-model
     RDKit          3D

 14 15  0  0  0  0  0  0  0  0999 V2000
   -3.2010   20.9380    7.0240 C   0  0  0  0  0  0  0  0  0  0  0  0
   -4.0010   21.0810    5.7890 N   0  0  0  0  0  0  0  0  0  0  0  0
   -1.3890   23.0320    6.5480 S   0  0  0  0  0  0  0  0  0  0  0  0
   -3.3940   20.5180    4.5570 C   0  0  0  0  0  0  0  0  0  0  0  0
   -2.9310   16.1760    4.3600 N   0  0  0  0  0  0  0  0  0  0  0  0
   -3.2720   18.9900    4.5520 C   0  0  0  0  0  0  0  0  0  0  0  0
   -2.6650   18.3870    3.4640 C   0  0  0  0  0  0  0  0  0  0  0  0
   -2.5260   17.0100    3.4130 C   0  0  0  0  0  0  0  0  0  0  0  0
   -3.5190   16.7570    5.3930 C   0  0  0  0  0  0  0  0  0  0  0  0
   -3.7160   18.1200    5.5350 C   0  0  0  0  0  0  0  0  0  0  0  0
   -1.7610   21.3280    6.7600 C   0  0  0  0  0  0  0  0  0  0  0  0
   -0.6490   20.5820    6.6290 C   0  0  0  0  0  0  0  0  0  0  0  0
    0.5300   21.3460    6.3620 C   0  0  0  0  0  0  0  0  0  0  0  0
    0.3070   22.6700    6.2800 C   0  0  0  0  0  0  0  0  0  0  0  0
  1  2  1  0
  1 11  1  0
  2  4  1  0
  3 11  1  0
  3 14  1  0
  4  6  1  0
  5  8  2  0
  5  9  1  0
  6  7  2  0
  6 10  1  0
  7  8  1  0
  9 10  2  0
 11 12  2  0
 12 13  1  0
 13 14  2  0
M  CHG  1   2   1
M  END
$$$$
