CypD-x0273-pandda-model
     RDKit          3D

 15 16  0  0  0  0  0  0  0  0999 V2000
   -0.5206   13.9475    1.2966 C   0  0  0  0  0  0  0  0  0  0  0  0
   -0.9755   15.1156    2.1094 N   0  0  0  0  0  0  0  0  0  0  0  0
   -2.9121   14.1501    2.6640 O   0  0  0  0  0  0  0  0  0  0  0  0
    0.0064   16.2284    2.1214 C   0  0  0  0  0  0  0  0  0  0  0  0
   -3.9980   19.3503    6.0937 N   0  0  0  0  0  0  0  0  0  0  0  0
   -2.2016   15.1383    2.7590 C   0  0  0  0  0  0  0  0  0  0  0  0
   -2.6699   16.2544    3.5635 C   0  0  0  0  0  0  0  0  0  0  0  0
   -3.1939   16.0095    4.8328 C   0  0  0  0  0  0  0  0  0  0  0  0
   -3.6267   17.0322    5.6498 C   0  0  0  0  0  0  0  0  0  0  0  0
   -3.5721   18.3520    5.2302 C   0  0  0  0  0  0  0  0  0  0  0  0
   -3.9118   20.7865    5.7143 C   0  0  0  0  0  0  0  0  0  0  0  0
   -2.8073   21.0023    4.6766 C   0  0  0  0  0  0  0  0  0  0  0  0
   -2.9959   20.0656    3.4786 C   0  0  0  0  0  0  0  0  0  0  0  0
   -3.0746   18.6232    3.9551 C   0  0  0  0  0  0  0  0  0  0  0  0
   -2.6451   17.5881    3.1405 C   0  0  0  0  0  0  0  0  0  0  0  0
  1  2  1  0
  2  4  1  0
  2  6  1  0
  3  6  2  0
  5 10  1  0
  5 11  1  0
  6  7  1  0
  7  8  1  0
  7 15  2  0
  8  9  2  0
  9 10  1  0
 10 14  2  0
 11 12  1  0
 12 13  1  0
 13 14  1  0
 14 15  1  0
M  END
$$$$
