CypD-x0470-pandda-model
     RDKit          3D

 14 14  0  0  0  0  0  0  0  0999 V2000
   -0.0140   16.5880   -0.1300 C   0  0  0  0  0  0  0  0  0  0  0  0
   -1.4040   16.4650    1.8840 N   0  0  0  0  0  0  0  0  0  0  0  0
   -0.7910   18.4750    1.0030 O   0  0  0  0  0  0  0  0  0  0  0  0
   -0.7740   17.2700    0.9790 C   0  0  0  0  0  0  0  0  0  0  0  0
   -4.2950   19.4880    4.3660 N   0  0  0  0  0  0  0  0  0  0  0  0
   -6.2910   19.1060    5.3720 O   0  0  0  0  0  0  0  0  0  0  0  0
   -2.2600   16.7510    2.9580 C   0  0  0  0  0  0  0  0  0  0  0  0
   -5.6910   21.1930    5.0610 N   0  0  0  0  0  0  0  0  0  0  0  0
   -2.5650   15.7200    3.8380 C   0  0  0  0  0  0  0  0  0  0  0  0
   -3.4180   15.9330    4.9030 C   0  0  0  0  0  0  0  0  0  0  0  0
   -3.9850   17.1770    5.1010 C   0  0  0  0  0  0  0  0  0  0  0  0
   -3.7180   18.2200    4.2240 C   0  0  0  0  0  0  0  0  0  0  0  0
   -5.4560   19.8820    4.9500 C   0  0  0  0  0  0  0  0  0  0  0  0
   -2.8410   17.9960    3.1710 C   0  0  0  0  0  0  0  0  0  0  0  0
  1  4  1  0
  2  4  1  0
  2  7  1  0
  3  4  2  0
  5 12  1  0
  5 13  1  0
  6 13  2  0
  7  9  2  0
  7 14  1  0
  8 13  1  0
  9 10  1  0
 10 11  2  0
 11 12  1  0
 12 14  2  0
M  END
$$$$
