CypD-x0455-pandda-model
     RDKit          3D

 12 12  0  0  0  0  0  0  0  0999 V2000
   -3.8054   21.3163    7.0087 C   0  0  0  0  0  0  0  0  0  0  0  0
   -2.4571   20.7593    6.9264 N   0  0  0  0  0  0  0  0  0  0  0  0
   -0.5345   20.0181    5.5132 O   0  0  0  0  0  0  0  0  0  0  0  0
   -1.7755   20.7491    5.3924 S   0  0  0  0  0  0  0  0  0  0  0  0
   -2.9117   19.9550    4.2617 C   0  0  0  0  0  0  0  0  0  0  0  0
   -3.7222   17.9587    5.5020 N   0  0  0  0  0  0  0  0  0  0  0  0
   -1.6689   22.1457    5.0369 O   0  0  0  0  0  0  0  0  0  0  0  0
   -3.0903   18.4746    4.5062 C   0  0  0  0  0  0  0  0  0  0  0  0
   -3.6910   16.6681    5.3206 O   0  0  0  0  0  0  0  0  0  0  0  0
   -2.6319   17.4809    3.6465 C   0  0  0  0  0  0  0  0  0  0  0  0
   -3.0585   16.3486    4.2235 C   0  0  0  0  0  0  0  0  0  0  0  0
   -2.9330   14.9046    3.7885 C   0  0  0  0  0  0  0  0  0  0  0  0
  1  2  1  0
  2  4  1  0
  3  4  2  0
  4  5  1  0
  4  7  2  0
  5  8  1  0
  6  8  2  0
  6  9  1  0
  8 10  1  0
  9 11  1  0
 10 11  2  0
 11 12  1  0
M  END
$$$$
