CypD-x0126-pandda-model
     RDKit          3D

 10 10  0  0  1  0  0  0  0  0999 V2000
   -3.2987   16.4563    4.5781 C   0  0  0  0  0  0  0  0  0  0  0  0
   -3.7791   20.6876    4.5200 N   0  0  0  0  0  0  0  0  0  0  0  0
   -1.1083   21.5854    5.3395 O   0  0  0  0  0  0  0  0  0  0  0  0
   -3.6693   17.9405    4.4803 C   0  0  1  0  0  0  0  0  0  0  0  0
   -0.5311   19.4713    5.5036 N   0  0  0  0  0  0  0  0  0  0  0  0
   -3.7730   18.5810    5.8710 C   0  0  0  0  0  0  0  0  0  0  0  0
   -4.1147   20.0815    5.8368 C   0  0  0  0  0  0  0  0  0  0  0  0
   -2.4785   20.1950    3.9696 C   0  0  2  0  0  0  0  0  0  0  0  0
   -2.6804   18.7129    3.5762 C   0  0  0  0  0  0  0  0  0  0  0  0
   -1.3049   20.4516    4.9737 C   0  0  0  0  0  0  0  0  0  0  0  0
  4  1  1  1
  2  7  1  0
  2  8  1  0
  3 10  2  0
  4  6  1  0
  4  9  1  0
  5 10  1  0
  6  7  1  0
  8  9  1  0
  8 10  1  1
M  CHG  1   2   1
M  END
$$$$
