CypD-x0128-pandda-model
     RDKit          3D

 14 15  0  0  0  0  0  0  0  0999 V2000
   -3.6978   21.0969    6.5434 C   0  0  0  0  0  0  0  0  0  0  0  0
   -4.3847   21.0110    5.2273 N   0  0  0  0  0  0  0  0  0  0  0  0
   -2.0063   23.2973    6.0728 S   0  0  0  0  0  0  0  0  0  0  0  0
   -3.5860   20.4444    4.1082 C   0  0  0  0  0  0  0  0  0  0  0  0
   -2.7496   16.1666    4.3297 N   0  0  0  0  0  0  0  0  0  0  0  0
   -3.3344   18.9402    4.2496 C   0  0  0  0  0  0  0  0  0  0  0  0
   -3.6794   18.1362    5.3280 C   0  0  0  0  0  0  0  0  0  0  0  0
   -3.3633   16.7897    5.3176 C   0  0  0  0  0  0  0  0  0  0  0  0
   -2.4378   16.9285    3.2952 C   0  0  0  0  0  0  0  0  0  0  0  0
   -2.6969   18.2865    3.2107 C   0  0  0  0  0  0  0  0  0  0  0  0
   -2.2780   21.5912    6.3836 C   0  0  0  0  0  0  0  0  0  0  0  0
   -1.1105   20.9272    6.4398 C   0  0  0  0  0  0  0  0  0  0  0  0
    0.0357   21.7612    6.2583 C   0  0  0  0  0  0  0  0  0  0  0  0
   -0.2674   23.0545    6.0472 C   0  0  0  0  0  0  0  0  0  0  0  0
  1  2  1  0
  1 11  1  0
  2  4  1  0
  3 11  1  0
  3 14  1  0
  4  6  1  0
  5  8  2  0
  5  9  1  0
  6  7  2  0
  6 10  1  0
  7  8  1  0
  9 10  2  0
 11 12  2  0
 12 13  1  0
 13 14  2  0
M  CHG  1   2   1
M  END
$$$$
