CypD-x0566-pandda-model
     RDKit          3D

 15 16  0  0  1  0  0  0  0  0999 V2000
   -5.6030   21.0700    4.3990 C   0  0  0  0  0  0  0  0  0  0  0  0
   -4.5230   20.0620    4.4510 N   0  0  0  0  0  0  0  0  0  0  0  0
   -5.8140   18.5750    5.5790 O   0  0  0  0  0  0  0  0  0  0  0  0
   -4.7070   18.9440    5.2290 C   0  0  0  0  0  0  0  0  0  0  0  0
   -1.8820   19.5890    1.9090 N   0  0  0  0  0  0  0  0  0  0  0  0
   -3.4650   18.2190    5.7410 C   0  0  1  0  0  0  0  0  0  0  0  0
   -3.6290   16.8870    6.4260 C   0  0  0  0  0  0  0  0  0  0  0  0
   -2.7720   16.9880    5.2150 C   0  0  0  0  0  0  0  0  0  0  0  0
   -1.2540   16.9260    5.3630 C   0  0  0  0  0  0  0  0  0  0  0  0
   -3.2430   16.1900    3.9990 C   0  0  0  0  0  0  0  0  0  0  0  0
   -3.3840   20.3350    3.6620 C   0  0  0  0  0  0  0  0  0  0  0  0
   -2.7190   21.5470    3.7530 C   0  0  0  0  0  0  0  0  0  0  0  0
   -1.6540   21.7590    2.9030 C   0  0  0  0  0  0  0  0  0  0  0  0
   -1.2850   20.7650    2.0120 C   0  0  0  0  0  0  0  0  0  0  0  0
   -2.9100   19.4170    2.7260 C   0  0  0  0  0  0  0  0  0  0  0  0
  1  2  1  0
  2  4  1  0
  2 11  1  0
  3  4  2  0
  6  4  1  6
  5 14  2  0
  5 15  1  0
  6  7  1  0
  6  8  1  0
  7  8  1  0
  8  9  1  0
  8 10  1  0
 11 12  1  0
 11 15  2  0
 12 13  2  0
 13 14  1  0
M  END
$$$$
