CypD-x0374-pandda-model
     RDKit          3D

 15 16  0  0  1  0  0  0  0  0999 V2000
    1.3370   23.5340   -1.8200 C   0  0  0  0  0  0  0  0  0  0  0  0
   -0.4010   22.1360   -0.8850 N   0  0  0  0  0  0  0  0  0  0  0  0
   -3.9660   21.6570   -6.6110 O   0  0  0  0  0  0  0  0  0  0  0  0
   -0.1520   23.4250   -1.5190 C   0  0  2  0  0  0  0  0  0  0  0  0
   -3.5400   23.8290   -6.1080 N   0  0  0  0  0  0  0  0  0  0  0  0
   -0.9930   23.5260   -2.7820 C   0  0  0  0  0  0  0  0  0  0  0  0
   -1.8830   24.5830   -2.9140 C   0  0  0  0  0  0  0  0  0  0  0  0
   -2.6850   24.6920   -4.0350 C   0  0  0  0  0  0  0  0  0  0  0  0
   -2.6340   23.7390   -5.0440 C   0  0  0  0  0  0  0  0  0  0  0  0
   -4.2380   22.8300   -6.7240 C   0  0  0  0  0  0  0  0  0  0  0  0
   -5.4500   23.2480   -7.5520 C   0  0  0  0  0  0  0  0  0  0  0  0
   -5.4640   23.0570   -9.0410 C   0  0  0  0  0  0  0  0  0  0  0  0
   -6.3870   22.2530   -8.1780 C   0  0  0  0  0  0  0  0  0  0  0  0
   -1.7140   22.7050   -4.9270 C   0  0  0  0  0  0  0  0  0  0  0  0
   -0.9020   22.5970   -3.8130 C   0  0  0  0  0  0  0  0  0  0  0  0
  4  1  1  6
  2  4  1  0
  3 10  2  0
  4  6  1  0
  5  9  1  0
  5 10  1  0
  6  7  2  0
  6 15  1  0
  7  8  1  0
  8  9  2  0
  9 14  1  0
 10 11  1  0
 11 12  1  0
 11 13  1  0
 12 13  1  0
 14 15  2  0
M  CHG  1   2   1
M  END
$$$$
