CypD-x0637-pandda-model
     RDKit          3D

  8  8  0  0  0  0  0  0  0  0999 V2000
   -4.0054   17.8585    4.9494 O   0  0  0  0  0  0  0  0  0  0  0  0
   -2.7840   18.7131    3.3163 N   0  0  0  0  0  0  0  0  0  0  0  0
   -1.7757   17.2443    1.7851 N   0  0  0  0  0  0  0  0  0  0  0  0
   -3.3040   17.6203    3.9665 C   0  0  0  0  0  0  0  0  0  0  0  0
   -2.0673   18.4920    2.2643 C   0  0  0  0  0  0  0  0  0  0  0  0
   -2.2502   16.1174    2.4109 C   0  0  0  0  0  0  0  0  0  0  0  0
   -3.0150   16.2987    3.5079 C   0  0  0  0  0  0  0  0  0  0  0  0
   -3.6660   14.9250    4.3778 Cl  0  0  0  0  0  0  0  0  0  0  0  0
  1  4  2  0
  2  4  1  0
  2  5  2  0
  3  5  1  0
  3  6  1  0
  4  7  1  0
  6  7  2  0
  7  8  1  0
M  END
$$$$
