CypD-x0919-pandda-model
     RDKit          3D

 14 15  0  0  0  0  0  0  0  0999 V2000
    3.6300   21.9980    4.3480 C   0  0  0  0  0  0  0  0  0  0  0  0
    0.8870   24.0430    3.3140 N   0  0  0  0  0  0  0  0  0  0  0  0
    2.8010   23.2580    4.6710 C   0  0  0  0  0  0  0  0  0  0  0  0
   -3.1890   21.4340    2.9410 N   0  0  0  0  0  0  0  0  0  0  0  0
    2.8100   23.4700    6.1960 C   0  0  0  0  0  0  0  0  0  0  0  0
    0.6480   22.0340    4.5280 N   0  0  0  0  0  0  0  0  0  0  0  0
    3.5520   24.4560    4.0440 C   0  0  0  0  0  0  0  0  0  0  0  0
    1.3390   23.1050    4.1360 C   0  0  0  0  0  0  0  0  0  0  0  0
   -0.3000   23.8600    2.7890 C   0  0  0  0  0  0  0  0  0  0  0  0
   -1.0670   22.7620    3.0900 C   0  0  0  0  0  0  0  0  0  0  0  0
   -2.4050   22.5760    2.3950 C   0  0  0  0  0  0  0  0  0  0  0  0
   -2.3650   20.2560    3.3330 C   0  0  0  0  0  0  0  0  0  0  0  0
   -1.3310   20.6250    4.4020 C   0  0  0  0  0  0  0  0  0  0  0  0
   -0.5460   21.8640    3.9950 C   0  0  0  0  0  0  0  0  0  0  0  0
  1  3  1  0
  2  8  2  0
  2  9  1  0
  3  5  1  0
  3  7  1  0
  3  8  1  0
  4 11  1  0
  4 12  1  0
  6  8  1  0
  6 14  2  0
  9 10  2  0
 10 11  1  0
 10 14  1  0
 12 13  1  0
 13 14  1  0
M  CHG  1   4   1
M  END
$$$$
