CypD-x0964-pandda-model
     RDKit          3D

 12 13  0  0  0  0  0  0  0  0999 V2000
   -3.4095   18.7009    5.2566 C   0  0  0  0  0  0  0  0  0  0  0  0
   -4.0903   19.3996    6.2260 N   0  0  0  0  0  0  0  0  0  0  0  0
   -0.5065   15.4500    2.6798 O   0  0  0  0  0  0  0  0  0  0  0  0
   -3.1518   19.2561    4.0110 C   0  0  0  0  0  0  0  0  0  0  0  0
   -0.5773   17.0493    1.2714 N   0  0  0  0  0  0  0  0  0  0  0  0
   -2.3876   18.5731    3.0871 C   0  0  0  0  0  0  0  0  0  0  0  0
    0.2441   15.0528    1.7191 N   0  0  0  0  0  0  0  0  0  0  0  0
   -1.8589   17.3085    3.3615 C   0  0  0  0  0  0  0  0  0  0  0  0
   -2.1782   16.7423    4.5989 C   0  0  0  0  0  0  0  0  0  0  0  0
   -2.9353   17.4263    5.5297 C   0  0  0  0  0  0  0  0  0  0  0  0
   -1.0013   16.6322    2.4149 C   0  0  0  0  0  0  0  0  0  0  0  0
    0.1724   16.0141    0.8784 C   0  0  0  0  0  0  0  0  0  0  0  0
  1  2  1  0
  1  4  2  0
  1 10  1  0
  3  7  1  0
  3 11  1  0
  4  6  1  0
  5 11  2  0
  5 12  1  0
  6  8  2  0
  7 12  2  0
  8  9  1  0
  8 11  1  0
  9 10  2  0
M  END
$$$$
