CypD-x0478-pandda-model
     RDKit          3D

 14 15  0  0  1  0  0  0  0  0999 V2000
   -3.9710   17.0078    4.7502 C   0  0  0  0  0  0  0  0  0  0  0  0
   -4.1306   18.4830    4.8667 N   0  0  0  0  0  0  0  0  0  0  0  0
   -1.0864   21.8684    5.9246 O   0  0  0  0  0  0  0  0  0  0  0  0
   -3.4562   18.9835    6.1159 C   0  0  0  0  0  0  0  0  0  0  0  0
   -2.9830   21.1619    4.9885 N   0  0  0  0  0  0  0  0  0  0  0  0
   -0.6118   23.8372    4.0484 O   0  0  0  0  0  0  0  0  0  0  0  0
   -3.4925   20.5172    6.2373 C   0  0  0  0  0  0  0  0  0  0  0  0
   -3.7319   20.7335    3.7830 C   0  0  0  0  0  0  0  0  0  0  0  0
   -3.6484   19.2016    3.6318 C   0  0  0  0  0  0  0  0  0  0  0  0
   -1.8180   21.8885    4.9597 C   0  0  0  0  0  0  0  0  0  0  0  0
   -1.3931   22.7069    3.7131 C   0  0  2  0  0  0  0  0  0  0  0  0
   -0.5525   21.8924    2.7205 C   0  0  0  0  0  0  0  0  0  0  0  0
    0.7724   22.6265    2.6483 C   0  0  0  0  0  0  0  0  0  0  0  0
    0.4044   24.0222    3.1143 C   0  0  0  0  0  0  0  0  0  0  0  0
  1  2  1  0
  2  4  1  0
  2  9  1  0
  3 10  2  0
  4  7  1  0
  5  7  1  0
  5  8  1  0
  5 10  1  0
  6 11  1  0
  6 14  1  0
  8  9  1  0
 11 10  1  1
 11 12  1  0
 12 13  1  0
 13 14  1  0
M  CHG  1   2   1
M  END
$$$$
