CypD-x0133-pandda-model
     RDKit          3D

 15 16  0  0  0  0  0  0  0  0999 V2000
    2.4845   18.7648   -3.4894 C   0  0  0  0  0  0  0  0  0  0  0  0
    0.8914   15.5963   -2.4884 N   0  0  0  0  0  0  0  0  0  0  0  0
    1.7839   13.8044    1.4053 O   0  0  0  0  0  0  0  0  0  0  0  0
    1.6864   17.5050   -3.8529 C   0  0  0  0  0  0  0  0  0  0  0  0
   -0.3454   14.3429    0.8067 N   0  0  0  0  0  0  0  0  0  0  0  0
    0.5117   17.5986   -1.7045 O   0  0  0  0  0  0  0  0  0  0  0  0
    1.0205   16.8505   -2.6534 C   0  0  0  0  0  0  0  0  0  0  0  0
    0.0333   16.7451   -0.8520 N   0  0  0  0  0  0  0  0  0  0  0  0
    0.2769   15.5783   -1.3112 C   0  0  0  0  0  0  0  0  0  0  0  0
   -0.0636   14.2408   -0.6561 C   0  0  0  0  0  0  0  0  0  0  0  0
   -1.6144   14.6952    1.2217 C   0  0  0  0  0  0  0  0  0  0  0  0
   -1.8815   14.9947    2.5193 C   0  0  0  0  0  0  0  0  0  0  0  0
   -0.8459   14.9454    3.4800 C   0  0  0  0  0  0  0  0  0  0  0  0
    0.3984   14.5660    3.0811 C   0  0  0  0  0  0  0  0  0  0  0  0
    0.6771   14.2300    1.7269 C   0  0  0  0  0  0  0  0  0  0  0  0
  1  4  1  0
  2  7  2  0
  2  9  1  0
  3 15  2  0
  4  7  1  0
  5 10  1  0
  5 11  1  0
  5 15  1  0
  6  7  1  0
  6  8  1  0
  8  9  2  0
  9 10  1  0
 11 12  2  0
 12 13  1  0
 13 14  2  0
 14 15  1  0
M  END
$$$$
