CypD-x0896-pandda-model
     RDKit          3D

 10 11  0  0  1  0  0  0  0  0999 V2000
   -5.1793   18.3437    5.4502 C   0  0  0  0  0  0  0  0  0  0  0  0
   -4.6205   17.2698    6.0139 N   0  0  0  0  0  0  0  0  0  0  0  0
   -6.2968   18.7342    5.7251 O   0  0  0  0  0  0  0  0  0  0  0  0
   -3.1945   17.1665    5.6619 C   0  0  0  0  0  0  0  0  0  0  0  0
   -4.3324   18.9579    4.6034 N   0  0  0  0  0  0  0  0  0  0  0  0
   -3.0042   18.2987    4.6372 C   0  0  1  0  0  0  0  0  0  0  0  0
   -1.9348   19.3230    5.0420 C   0  0  0  0  0  0  0  0  0  0  0  0
   -1.8836   20.5132    4.0607 C   0  0  0  0  0  0  0  0  0  0  0  0
   -3.2474   20.8133    3.4087 C   0  0  0  0  0  0  0  0  0  0  0  0
   -4.4223   20.4006    4.2990 C   0  0  0  0  0  0  0  0  0  0  0  0
  1  2  1  0
  1  3  2  0
  1  5  1  0
  2  4  1  0
  6  4  1  1
  5  6  1  0
  5 10  1  0
  6  7  1  0
  7  8  1  0
  8  9  1  0
  9 10  1  0
M  END
$$$$
