CypD-x0207-pandda-model
     RDKit          3D

 10 11  0  0  0  0  0  0  0  0999 V2000
   -3.5090   17.7530    5.0260 C   0  0  0  0  0  0  0  0  0  0  0  0
   -3.5070   19.1080    5.2960 N   0  0  0  0  0  0  0  0  0  0  0  0
   -2.4040   18.7710    3.0210 S   0  0  0  0  0  0  0  0  0  0  0  0
   -2.9650   17.3610    3.8650 C   0  0  0  0  0  0  0  0  0  0  0  0
   -2.3240   21.9850    5.2890 N   0  0  0  0  0  0  0  0  0  0  0  0
   -2.9290   19.7880    4.3610 C   0  0  0  0  0  0  0  0  0  0  0  0
   -2.1270   23.2050    4.8010 N   0  0  0  0  0  0  0  0  0  0  0  0
   -2.6420   21.1970    4.2880 C   0  0  0  0  0  0  0  0  0  0  0  0
   -2.6490   21.9030    3.1470 N   0  0  0  0  0  0  0  0  0  0  0  0
   -2.3350   23.1350    3.5280 C   0  0  0  0  0  0  0  0  0  0  0  0
  1  2  1  0
  1  4  2  0
  2  6  2  0
  3  4  1  0
  3  6  1  0
  5  7  1  0
  5  8  2  0
  6  8  1  0
  7 10  2  0
  8  9  1  0
  9 10  1  0
M  END
$$$$
