CypD-x0373-pandda-model
     RDKit          3D

 15 16  0  0  0  0  0  0  0  0999 V2000
   -3.6850   17.5100    5.2850 C   0  0  0  0  0  0  0  0  0  0  0  0
   -2.1540   19.4820    5.2160 N   0  0  0  0  0  0  0  0  0  0  0  0
   -0.9440   22.0110    5.7600 O   0  0  0  0  0  0  0  0  0  0  0  0
   -3.5570   15.6720    5.1840 S   0  0  0  0  0  0  0  0  0  0  0  0
   -2.2830   18.0440    5.5780 C   0  0  0  0  0  0  0  0  0  0  0  0
   -0.7430   19.7940    4.7990 C   0  0  0  0  0  0  0  0  0  0  0  0
   -0.4960   21.3090    4.6300 C   0  0  0  0  0  0  0  0  0  0  0  0
   -2.3210   21.8410    5.9720 C   0  0  0  0  0  0  0  0  0  0  0  0
   -2.6150   20.3730    6.3290 C   0  0  0  0  0  0  0  0  0  0  0  0
   -2.3650   15.3170    3.8860 C   0  0  0  0  0  0  0  0  0  0  0  0
   -1.6930   14.1110    3.9560 C   0  0  0  0  0  0  0  0  0  0  0  0
   -0.7290   13.8120    3.0090 C   0  0  0  0  0  0  0  0  0  0  0  0
   -0.4570   14.7130    1.9920 C   0  0  0  0  0  0  0  0  0  0  0  0
   -1.1530   15.9080    1.9130 C   0  0  0  0  0  0  0  0  0  0  0  0
   -2.1150   16.2140    2.8590 C   0  0  0  0  0  0  0  0  0  0  0  0
  1  4  1  0
  1  5  1  0
  2  5  1  0
  2  6  1  0
  2  9  1  0
  3  7  1  0
  3  8  1  0
  4 10  1  0
  6  7  1  0
  8  9  1  0
 10 11  2  0
 10 15  1  0
 11 12  1  0
 12 13  2  0
 13 14  1  0
 14 15  2  0
M  CHG  1   2   1
M  END
$$$$
