CypD-x0681-pandda-model
     RDKit          3D

 15 16  0  0  0  0  0  0  0  0999 V2000
    2.3150   21.7530   -2.6270 C   0  0  0  0  0  0  0  0  0  0  0  0
    1.3800   22.7900   -2.1750 N   0  0  0  0  0  0  0  0  0  0  0  0
   -1.9670   25.5920   -0.0460 O   0  0  0  0  0  0  0  0  0  0  0  0
    1.6650   24.0700   -1.8690 C   0  0  0  0  0  0  0  0  0  0  0  0
   -1.7980   23.6920   -1.2630 N   0  0  0  0  0  0  0  0  0  0  0  0
    0.5100   24.6450   -1.4720 C   0  0  0  0  0  0  0  0  0  0  0  0
   -4.8040   25.4310   -0.9510 N   0  0  0  0  0  0  0  0  0  0  0  0
   -0.4410   23.6320   -1.5650 C   0  0  0  0  0  0  0  0  0  0  0  0
   -6.0590   25.7010   -0.5060 N   0  0  0  0  0  0  0  0  0  0  0  0
   -2.4870   24.6160   -0.5400 C   0  0  0  0  0  0  0  0  0  0  0  0
    0.0710   22.5200   -1.9890 N   0  0  0  0  0  0  0  0  0  0  0  0
   -3.9650   24.3920   -0.3170 C   0  0  0  0  0  0  0  0  0  0  0  0
   -4.5050   26.1980   -2.0220 C   0  0  0  0  0  0  0  0  0  0  0  0
   -5.5670   26.9960   -2.2590 C   0  0  0  0  0  0  0  0  0  0  0  0
   -6.4950   26.6460   -1.2890 C   0  0  0  0  0  0  0  0  0  0  0  0
  1  2  1  0
  2  4  1  0
  2 11  1  0
  3 10  2  0
  4  6  2  0
  5  8  1  0
  5 10  1  0
  6  8  1  0
  7  9  1  0
  7 12  1  0
  7 13  1  0
  8 11  2  0
  9 15  2  0
 10 12  1  0
 13 14  2  0
 14 15  1  0
M  END
$$$$
