CypD-x0652-pandda-model
     RDKit          3D

 12 12  0  0  0  0  0  0  0  0999 V2000
   -2.7990   14.9410    4.2070 C   0  0  0  0  0  0  0  0  0  0  0  0
   -2.5750   18.9140    2.8490 N   0  0  0  0  0  0  0  0  0  0  0  0
   -3.3690   17.2430    4.2020 O   0  0  0  0  0  0  0  0  0  0  0  0
   -2.4930   16.3100    3.6090 C   0  0  0  0  0  0  0  0  0  0  0  0
   -4.6150   18.3150    6.6490 N   0  0  0  0  0  0  0  0  0  0  0  0
   -6.3500   19.0320    5.5390 O   0  0  0  0  0  0  0  0  0  0  0  0
   -3.4000   18.5390    3.8270 C   0  0  0  0  0  0  0  0  0  0  0  0
   -2.6590   20.1810    2.4840 C   0  0  0  0  0  0  0  0  0  0  0  0
   -3.5320   21.0990    3.0380 C   0  0  0  0  0  0  0  0  0  0  0  0
   -4.3700   20.7030    4.0550 C   0  0  0  0  0  0  0  0  0  0  0  0
   -4.3060   19.3850    4.4810 C   0  0  0  0  0  0  0  0  0  0  0  0
   -5.1400   18.9070    5.5550 C   0  0  0  0  0  0  0  0  0  0  0  0
  1  4  1  0
  2  7  2  0
  2  8  1  0
  3  4  1  0
  3  7  1  0
  5 12  1  0
  6 12  2  0
  7 11  1  0
  8  9  2  0
  9 10  1  0
 10 11  2  0
 11 12  1  0
M  END
$$$$
