CypD-x0478-pandda-model
     RDKit          3D

 14 15  0  0  1  0  0  0  0  0999 V2000
   -3.7990   16.9270    4.7260 C   0  0  0  0  0  0  0  0  0  0  0  0
   -3.9390   18.3870    4.9970 N   0  0  0  0  0  0  0  0  0  0  0  0
   -1.4100   22.4250    6.3730 O   0  0  0  0  0  0  0  0  0  0  0  0
   -3.5450   19.2070    3.7980 C   0  0  0  0  0  0  0  0  0  0  0  0
   -2.9000   21.1180    5.3080 N   0  0  0  0  0  0  0  0  0  0  0  0
   -1.3740   24.4640    4.6290 O   0  0  0  0  0  0  0  0  0  0  0  0
   -3.6530   20.7180    4.0710 C   0  0  0  0  0  0  0  0  0  0  0  0
   -3.1780   20.2750    6.5150 C   0  0  0  0  0  0  0  0  0  0  0  0
   -3.1310   18.7670    6.2060 C   0  0  0  0  0  0  0  0  0  0  0  0
   -2.1510   22.2680    5.4220 C   0  0  0  0  0  0  0  0  0  0  0  0
   -2.2240   23.3810    4.3490 C   0  0  1  0  0  0  0  0  0  0  0  0
   -3.6010   24.0310    4.2030 C   0  0  0  0  0  0  0  0  0  0  0  0
   -3.3000   25.4740    3.8230 C   0  0  0  0  0  0  0  0  0  0  0  0
   -1.7800   25.5650    3.8820 C   0  0  0  0  0  0  0  0  0  0  0  0
  1  2  1  0
  2  4  1  0
  2  9  1  0
  3 10  2  0
  4  7  1  0
  5  7  1  0
  5  8  1  0
  5 10  1  0
  6 11  1  0
  6 14  1  0
  8  9  1  0
 11 10  1  1
 11 12  1  0
 12 13  1  0
 13 14  1  0
M  CHG  1   2   1
M  END
$$$$
