CypD-x0935-pandda-model
     RDKit          3D

 12 13  0  0  0  0  0  0  0  0999 V2000
   -5.1870   19.0080    5.1560 C   0  0  0  0  0  0  0  0  0  0  0  0
   -6.3180   19.0300    5.2770 N   0  0  0  0  0  0  0  0  0  0  0  0
   -3.6970   19.1410    5.0070 C   0  0  0  0  0  0  0  0  0  0  0  0
   -3.6930   22.0000    4.2930 N   0  0  0  0  0  0  0  0  0  0  0  0
   -3.2100   20.2280    5.9870 C   0  0  0  0  0  0  0  0  0  0  0  0
   -3.8580   21.5880    5.7120 C   0  0  0  0  0  0  0  0  0  0  0  0
   -4.0540   20.9760    3.2860 C   0  0  0  0  0  0  0  0  0  0  0  0
   -3.3680   19.6440    3.5810 C   0  0  0  0  0  0  0  0  0  0  0  0
   -3.0640   17.7740    5.3790 C   0  0  0  0  0  0  0  0  0  0  0  0
   -3.2420   16.5910    4.3820 C   0  0  0  0  0  0  0  0  0  0  0  0
   -1.8270   16.1230    4.7990 C   0  0  0  0  0  0  0  0  0  0  0  0
   -1.5290   17.5900    5.2090 C   0  0  0  0  0  0  0  0  0  0  0  0
  1  2  3  0
  1  3  1  0
  3  5  1  0
  3  8  1  0
  3  9  1  0
  4  6  1  0
  4  7  1  0
  5  6  1  0
  7  8  1  0
  9 10  1  0
  9 12  1  0
 10 11  1  0
 11 12  1  0
M  CHG  1   4   1
M  END
$$$$
