CypD-x0176-pandda-model
     RDKit          3D

 12 13  0  0  0  0  0  0  0  0999 V2000
   -0.9216   15.9245    2.3199 C   0  0  0  0  0  0  0  0  0  0  0  0
   -1.0172   16.0756    0.9809 N   0  0  0  0  0  0  0  0  0  0  0  0
   -0.1211   15.0873    2.6892 O   0  0  0  0  0  0  0  0  0  0  0  0
   -1.7258   16.7000    3.2475 C   0  0  0  0  0  0  0  0  0  0  0  0
   -3.8321   19.0942    5.9285 N   0  0  0  0  0  0  0  0  0  0  0  0
   -2.1800   16.1387    4.4488 C   0  0  0  0  0  0  0  0  0  0  0  0
   -2.9066   16.8740    5.3692 C   0  0  0  0  0  0  0  0  0  0  0  0
   -3.1842   18.2044    5.1078 C   0  0  0  0  0  0  0  0  0  0  0  0
   -3.7228   20.4588    5.3322 C   0  0  0  0  0  0  0  0  0  0  0  0
   -3.1596   20.2330    3.9134 C   0  0  0  0  0  0  0  0  0  0  0  0
   -2.7583   18.7747    3.9310 C   0  0  0  0  0  0  0  0  0  0  0  0
   -2.0521   18.0409    2.9980 C   0  0  0  0  0  0  0  0  0  0  0  0
  1  2  1  0
  1  3  2  0
  1  4  1  0
  4  6  2  0
  4 12  1  0
  5  8  1  0
  5  9  1  0
  6  7  1  0
  7  8  2  0
  8 11  1  0
  9 10  1  0
 10 11  1  0
 11 12  2  0
M  END
$$$$
