CypD-x0980-pandda-model
     RDKit          3D

 12 13  0  0  1  0  0  0  0  0999 V2000
   -1.0900   20.3360    5.8310 C   0  0  0  0  0  0  0  0  0  0  0  0
   -0.9930   20.6080    4.5060 N   0  0  0  0  0  0  0  0  0  0  0  0
   -0.8150   21.1050    6.7270 O   0  0  0  0  0  0  0  0  0  0  0  0
   -1.5380   19.6140    3.7710 C   0  0  0  0  0  0  0  0  0  0  0  0
   -2.1550   16.1470    5.3210 N   0  0  0  0  0  0  0  0  0  0  0  0
   -1.5630   19.5240    2.5700 O   0  0  0  0  0  0  0  0  0  0  0  0
   -2.1130   18.5860    4.7300 C   0  0  1  0  0  0  0  0  0  0  0  0
   -1.6090   19.1060    6.0280 N   0  0  0  0  0  0  0  0  0  0  0  0
   -3.6450   18.6130    4.7510 C   0  0  0  0  0  0  0  0  0  0  0  0
   -4.2030   17.5100    5.6590 C   0  0  0  0  0  0  0  0  0  0  0  0
   -3.6460   16.1300    5.2950 C   0  0  0  0  0  0  0  0  0  0  0  0
   -1.5880   17.1790    4.3910 C   0  0  0  0  0  0  0  0  0  0  0  0
  1  2  1  0
  1  3  2  0
  1  8  1  0
  2  4  1  0
  4  6  2  0
  4  7  1  0
  5 11  1  0
  5 12  1  0
  7  8  1  0
  7  9  1  1
  7 12  1  0
  9 10  1  0
 10 11  1  0
M  CHG  1   5   1
M  END
$$$$
