CypD-x0290-pandda-model
     RDKit          3D

 13 13  0  0  0  0  0  0  0  0999 V2000
   -0.1935   15.6745    3.0613 C   0  0  0  0  0  0  0  0  0  0  0  0
   -2.5893   16.0370    3.6101 N   0  0  0  0  0  0  0  0  0  0  0  0
   -4.0160   16.4422    5.2841 O   0  0  0  0  0  0  0  0  0  0  0  0
   -1.4751   16.4251    2.7024 C   0  0  0  0  0  0  0  0  0  0  0  0
   -2.1162   20.8024    7.1654 N   0  0  0  0  0  0  0  0  0  0  0  0
   -2.9427   14.5886    3.5994 C   0  0  0  0  0  0  0  0  0  0  0  0
   -3.2100   16.9029    4.4935 C   0  0  0  0  0  0  0  0  0  0  0  0
   -2.9523   18.3319    4.5600 C   0  0  0  0  0  0  0  0  0  0  0  0
   -3.0979   19.1891    3.4675 C   0  0  0  0  0  0  0  0  0  0  0  0
   -2.9175   20.5557    3.6010 C   0  0  0  0  0  0  0  0  0  0  0  0
   -2.5838   21.0970    4.8265 C   0  0  0  0  0  0  0  0  0  0  0  0
   -2.4218   20.2723    5.9286 C   0  0  0  0  0  0  0  0  0  0  0  0
   -2.6008   18.9068    5.7781 C   0  0  0  0  0  0  0  0  0  0  0  0
  1  4  1  0
  2  4  1  0
  2  6  1  0
  2  7  1  0
  3  7  2  0
  5 12  1  0
  7  8  1  0
  8  9  2  0
  8 13  1  0
  9 10  1  0
 10 11  2  0
 11 12  1  0
 12 13  2  0
M  END
$$$$
