CypD-x0141-pandda-model
     RDKit          3D

 15 15  0  0  0  0  0  0  0  0999 V2000
   -3.6230   25.0330    3.7400 C   0  0  0  0  0  0  0  0  0  0  0  0
   -4.2200   23.8460    4.3930 N   0  0  0  0  0  0  0  0  0  0  0  0
   -2.4640   23.0610    5.5550 O   0  0  0  0  0  0  0  0  0  0  0  0
   -3.6320   22.9600    5.2380 C   0  0  0  0  0  0  0  0  0  0  0  0
   -4.1990   20.4220    5.2880 N   0  0  0  0  0  0  0  0  0  0  0  0
   -4.4870   21.8030    5.7780 C   0  0  0  0  0  0  0  0  0  0  0  0
   -3.3470   19.6850    6.2330 C   0  0  0  0  0  0  0  0  0  0  0  0
   -3.3760   18.1910    5.9090 C   0  0  0  0  0  0  0  0  0  0  0  0
   -3.1720   17.9450    4.4170 C   0  0  0  0  0  0  0  0  0  0  0  0
   -3.2970   18.9570    3.5400 C   0  0  0  0  0  0  0  0  0  0  0  0
   -3.6490   20.3870    3.9160 C   0  0  0  0  0  0  0  0  0  0  0  0
   -2.8270   16.4890    4.0870 C   0  0  0  0  0  0  0  0  0  0  0  0
   -2.5800   16.3010    2.7980 F   0  0  0  0  0  0  0  0  0  0  0  0
   -1.7490   16.0680    4.7390 F   0  0  0  0  0  0  0  0  0  0  0  0
   -3.8040   15.6540    4.4090 F   0  0  0  0  0  0  0  0  0  0  0  0
  1  2  1  0
  2  4  1  0
  3  4  2  0
  4  6  1  0
  5  6  1  0
  5  7  1  0
  5 11  1  0
  7  8  1  0
  8  9  1  0
  9 10  2  0
  9 12  1  0
 10 11  1  0
 12 13  1  0
 12 14  1  0
 12 15  1  0
M  END
$$$$
