CypD-x0191-pandda-model
     RDKit          3D

 12 13  0  0  0  0  0  0  0  0999 V2000
   -3.0775   18.8470    5.9774 C   0  0  0  0  0  0  0  0  0  0  0  0
   -3.6492   19.9873    5.2140 N   0  0  0  0  0  0  0  0  0  0  0  0
   -2.0595   15.6684    3.7542 S   0  0  0  0  0  0  0  0  0  0  0  0
   -2.9548   20.2100    3.9177 C   0  0  0  0  0  0  0  0  0  0  0  0
   -3.4966   22.6689    4.0232 N   0  0  0  0  0  0  0  0  0  0  0  0
   -3.4793   21.4513    3.1651 C   0  0  0  0  0  0  0  0  0  0  0  0
   -4.0468   16.7606    4.9422 N   0  0  0  0  0  0  0  0  0  0  0  0
   -4.1932   22.4250    5.3177 C   0  0  0  0  0  0  0  0  0  0  0  0
   -3.6047   21.2060    6.0524 C   0  0  0  0  0  0  0  0  0  0  0  0
   -2.9354   17.5695    5.1563 C   0  0  0  0  0  0  0  0  0  0  0  0
   -1.7832   17.1512    4.6122 C   0  0  0  0  0  0  0  0  0  0  0  0
   -3.7361   15.7446    4.2355 C   0  0  0  0  0  0  0  0  0  0  0  0
  1  2  1  0
  1 10  1  0
  2  4  1  0
  2  9  1  0
  3 11  1  0
  3 12  1  0
  4  6  1  0
  5  6  1  0
  5  8  1  0
  7 10  1  0
  7 12  2  0
  8  9  1  0
 10 11  2  0
M  CHG  1   5   1
M  END
$$$$
