CypD-x0728-pandda-model
     RDKit          3D

 15 15  0  0  0  0  0  0  0  0999 V2000
   -3.0430   24.5550    3.4080 C   0  0  0  0  0  0  0  0  0  0  0  0
   -3.8400   23.5730    4.1800 N   0  0  0  0  0  0  0  0  0  0  0  0
   -2.2530   22.8320    5.5920 O   0  0  0  0  0  0  0  0  0  0  0  0
   -3.3780   22.7360    5.1460 C   0  0  0  0  0  0  0  0  0  0  0  0
   -4.0370   20.2390    5.2580 N   0  0  0  0  0  0  0  0  0  0  0  0
   -4.3240   21.6440    5.6680 C   0  0  0  0  0  0  0  0  0  0  0  0
   -3.5250   20.1370    3.8770 C   0  0  0  0  0  0  0  0  0  0  0  0
   -3.5090   18.6670    3.4410 C   0  0  0  0  0  0  0  0  0  0  0  0
   -2.9250   17.7500    4.5140 C   0  0  0  0  0  0  0  0  0  0  0  0
   -2.7420   18.2170    5.7560 C   0  0  0  0  0  0  0  0  0  0  0  0
   -3.1030   19.6160    6.2070 C   0  0  0  0  0  0  0  0  0  0  0  0
   -2.6130   16.3220    4.0560 C   0  0  0  0  0  0  0  0  0  0  0  0
   -3.7060   15.6690    3.6840 F   0  0  0  0  0  0  0  0  0  0  0  0
   -1.7840   16.2900    3.0220 F   0  0  0  0  0  0  0  0  0  0  0  0
   -2.0500   15.5840    5.0080 F   0  0  0  0  0  0  0  0  0  0  0  0
  1  2  1  0
  2  4  1  0
  3  4  2  0
  4  6  1  0
  5  6  1  0
  5  7  1  0
  5 11  1  0
  7  8  1  0
  8  9  1  0
  9 10  2  0
  9 12  1  0
 10 11  1  0
 12 13  1  0
 12 14  1  0
 12 15  1  0
M  END
$$$$
