CypD-x0733-pandda-model
     RDKit          3D

 16 17  0  0  0  0  0  0  0  0999 V2000
    5.6430   22.9800   20.7280 C   0  0  0  0  0  0  0  0  0  0  0  0
    6.7290   22.2620   20.4430 N   0  0  0  0  0  0  0  0  0  0  0  0
    5.7820   24.0020   21.3720 O   0  0  0  0  0  0  0  0  0  0  0  0
    4.2990   22.2640   18.7960 C   0  0  0  0  0  0  0  0  0  0  0  0
    4.4280   22.5710   20.2690 N   0  0  0  0  0  0  0  0  0  0  0  0
    0.9940   24.8210   19.0340 O   0  0  0  0  0  0  0  0  0  0  0  0
    2.8810   21.9260   18.2940 C   0  0  0  0  0  0  0  0  0  0  0  0
    1.8590   22.7750   18.9600 N   0  0  0  0  0  0  0  0  0  0  0  0
    0.8020   22.7270   16.1960 O   0  0  0  0  0  0  0  0  0  0  0  0
    1.8780   22.5760   20.4290 C   0  0  0  0  0  0  0  0  0  0  0  0
    3.2100   23.0810   20.9930 C   0  0  0  0  0  0  0  0  0  0  0  0
    1.1450   23.8000   18.3750 C   0  0  0  0  0  0  0  0  0  0  0  0
    0.5770   23.7350   17.0390 C   0  0  0  0  0  0  0  0  0  0  0  0
   -0.2650   24.6140   16.4240 C   0  0  0  0  0  0  0  0  0  0  0  0
   -0.5480   24.1010   15.1580 C   0  0  0  0  0  0  0  0  0  0  0  0
    0.1410   22.9440   15.0790 C   0  0  0  0  0  0  0  0  0  0  0  0
  1  2  1  0
  1  3  2  0
  1  5  1  0
  4  5  1  0
  4  7  1  0
  5 11  1  0
  6 12  2  0
  7  8  1  0
  8 10  1  0
  8 12  1  0
  9 13  1  0
  9 16  1  0
 10 11  1  0
 12 13  1  0
 13 14  2  0
 14 15  1  0
 15 16  2  0
M  END
$$$$
