CypD-x0935-pandda-model
     RDKit          3D

 12 13  0  0  0  0  0  0  0  0999 V2000
   -4.9728   19.3013    4.9127 C   0  0  0  0  0  0  0  0  0  0  0  0
   -6.0762   19.1929    5.1764 N   0  0  0  0  0  0  0  0  0  0  0  0
   -3.5037   19.5237    4.6346 C   0  0  0  0  0  0  0  0  0  0  0  0
   -3.3294   22.3967    4.0785 N   0  0  0  0  0  0  0  0  0  0  0  0
   -3.2952   20.0973    3.2155 C   0  0  0  0  0  0  0  0  0  0  0  0
   -3.8914   21.4928    3.0554 C   0  0  0  0  0  0  0  0  0  0  0  0
   -3.5947   21.9338    5.4600 C   0  0  0  0  0  0  0  0  0  0  0  0
   -2.9688   20.5480    5.6590 C   0  0  0  0  0  0  0  0  0  0  0  0
   -2.6772   18.2171    4.7301 C   0  0  0  0  0  0  0  0  0  0  0  0
   -3.2025   16.9914    3.9340 C   0  0  0  0  0  0  0  0  0  0  0  0
   -2.6331   16.1114    5.0677 C   0  0  0  0  0  0  0  0  0  0  0  0
   -2.8009   17.3384    6.0038 C   0  0  0  0  0  0  0  0  0  0  0  0
  1  2  3  0
  1  3  1  0
  3  5  1  0
  3  8  1  0
  3  9  1  0
  4  6  1  0
  4  7  1  0
  5  6  1  0
  7  8  1  0
  9 10  1  0
  9 12  1  0
 10 11  1  0
 11 12  1  0
M  CHG  1   4   1
M  END
$$$$
