CypD-x0602-pandda-model
     RDKit          3D

 13 14  0  0  1  0  0  0  0  0999 V2000
    0.5331   23.5639   14.2301 C   0  0  0  0  0  0  0  0  0  0  0  0
    0.6824   23.8089   15.6978 N   0  0  0  0  0  0  0  0  0  0  0  0
    2.9643   23.5771   14.1172 O   0  0  0  0  0  0  0  0  0  0  0  0
   -0.3570   24.1878   16.5304 C   0  0  0  0  0  0  0  0  0  0  0  0
   -2.4367   24.9186   18.3086 N   0  0  0  0  0  0  0  0  0  0  0  0
   -0.2691   23.9765   17.8934 C   0  0  0  0  0  0  0  0  0  0  0  0
   -1.3090   24.3516   18.7191 C   0  0  0  0  0  0  0  0  0  0  0  0
   -2.4982   25.1533   17.0011 C   0  0  0  0  0  0  0  0  0  0  0  0
   -1.5103   24.8167   16.0959 C   0  0  0  0  0  0  0  0  0  0  0  0
    1.8160   22.9295   13.6551 C   0  0  2  0  0  0  0  0  0  0  0  0
    1.9627   22.9981   12.1422 C   0  0  0  0  0  0  0  0  0  0  0  0
    3.4683   22.8782   11.9539 C   0  0  0  0  0  0  0  0  0  0  0  0
    4.0459   23.1508   13.3417 C   0  0  0  0  0  0  0  0  0  0  0  0
  1  2  1  0
 10  1  1  6
  2  4  1  0
  3 10  1  0
  3 13  1  0
  4  6  2  0
  4  9  1  0
  5  7  2  0
  5  8  1  0
  6  7  1  0
  8  9  2  0
 10 11  1  0
 11 12  1  0
 12 13  1  0
M  END
$$$$
