CypD-x0393-pandda-model
     RDKit          3D

 13 13  0  0  1  0  0  0  0  0999 V2000
   -3.3592   23.2434    3.2628 C   0  0  0  0  0  0  0  0  0  0  0  0
   -1.5774   22.4171    5.0000 O   0  0  0  0  0  0  0  0  0  0  0  0
   -3.0120   22.3932    4.7902 S   0  0  0  0  0  0  0  0  0  0  0  0
   -3.5247   20.7255    4.4184 C   0  0  0  0  0  0  0  0  0  0  0  0
   -3.8035   22.9990    5.8301 O   0  0  0  0  0  0  0  0  0  0  0  0
   -3.0757   19.7357    5.4904 C   0  0  1  0  0  0  0  0  0  0  0  0
   -4.0152   19.7307    6.5057 O   0  0  0  0  0  0  0  0  0  0  0  0
   -2.9005   18.3196    4.9294 C   0  0  0  0  0  0  0  0  0  0  0  0
   -1.8812   18.0962    4.0128 C   0  0  0  0  0  0  0  0  0  0  0  0
   -1.6769   16.8430    3.4632 C   0  0  0  0  0  0  0  0  0  0  0  0
   -2.4885   15.7864    3.8316 C   0  0  0  0  0  0  0  0  0  0  0  0
   -3.5018   15.9898    4.7484 C   0  0  0  0  0  0  0  0  0  0  0  0
   -3.7080   17.2456    5.2940 C   0  0  0  0  0  0  0  0  0  0  0  0
  1  3  1  0
  2  3  2  0
  3  4  1  0
  3  5  2  0
  4  6  1  0
  6  7  1  1
  6  8  1  0
  8  9  2  0
  8 13  1  0
  9 10  1  0
 10 11  2  0
 11 12  1  0
 12 13  2  0
M  END
$$$$
