CypD-x0323-pandda-model
     RDKit          3D

 14 14  0  0  0  0  0  0  0  0999 V2000
   -2.6816   14.8066    3.0235 C   0  0  0  0  0  0  0  0  0  0  0  0
   -2.6544   16.2670    3.2986 N   0  0  0  0  0  0  0  0  0  0  0  0
   -3.9022   16.2219    5.1448 O   0  0  0  0  0  0  0  0  0  0  0  0
   -2.9928   22.9380    5.1759 S   0  0  0  0  0  0  0  0  0  0  0  0
   -3.2784   16.8917    4.3411 C   0  0  0  0  0  0  0  0  0  0  0  0
   -4.5345   23.3733    5.5970 N   0  0  0  0  0  0  0  0  0  0  0  0
   -2.2016   23.2531    6.3463 O   0  0  0  0  0  0  0  0  0  0  0  0
   -3.2136   18.3331    4.5090 C   0  0  0  0  0  0  0  0  0  0  0  0
   -2.7813   23.6281    3.9265 O   0  0  0  0  0  0  0  0  0  0  0  0
   -3.1173   19.2221    3.4398 C   0  0  0  0  0  0  0  0  0  0  0  0
   -3.0607   20.5908    3.6444 C   0  0  0  0  0  0  0  0  0  0  0  0
   -3.0908   21.1407    4.9196 C   0  0  0  0  0  0  0  0  0  0  0  0
   -3.2019   20.2592    5.9859 C   0  0  0  0  0  0  0  0  0  0  0  0
   -3.2610   18.8936    5.7833 C   0  0  0  0  0  0  0  0  0  0  0  0
  1  2  1  0
  2  5  1  0
  3  5  2  0
  4  6  1  0
  4  7  2  0
  4  9  2  0
  4 12  1  0
  5  8  1  0
  8 10  2  0
  8 14  1  0
 10 11  1  0
 11 12  2  0
 12 13  1  0
 13 14  2  0
M  END
$$$$
