CypD-x0181-pandda-model
     RDKit          3D

 16 17  0  0  0  0  0  0  0  0999 V2000
   -1.7870   14.3410   -2.3860 C   0  0  0  0  0  0  0  0  0  0  0  0
   -2.9550   14.2250    0.6770 N   0  0  0  0  0  0  0  0  0  0  0  0
   -2.6720   11.7380    0.5750 O   0  0  0  0  0  0  0  0  0  0  0  0
   -2.9660   12.8620   -0.2870 S   0  0  0  0  0  0  0  0  0  0  0  0
   -1.6320   13.1130   -1.4710 C   0  0  0  0  0  0  0  0  0  0  0  0
   -4.2400   12.8540   -0.9680 O   0  0  0  0  0  0  0  0  0  0  0  0
   -1.9930   14.2390    1.7620 C   0  0  0  0  0  0  0  0  0  0  0  0
   -3.4290   18.3220    5.3080 O   0  0  0  0  0  0  0  0  0  0  0  0
   -2.3300   15.3890    2.6940 C   0  0  0  0  0  0  0  0  0  0  0  0
   -3.8700   16.1650    5.9150 O   0  0  0  0  0  0  0  0  0  0  0  0
   -2.0310   16.7050    2.3400 C   0  0  0  0  0  0  0  0  0  0  0  0
   -2.3690   17.7680    3.1690 C   0  0  0  0  0  0  0  0  0  0  0  0
   -3.0030   17.4790    4.3600 C   0  0  0  0  0  0  0  0  0  0  0  0
   -3.9020   17.5110    6.3840 C   0  0  0  0  0  0  0  0  0  0  0  0
   -3.2770   16.1930    4.7200 C   0  0  0  0  0  0  0  0  0  0  0  0
   -2.9540   15.1270    3.9080 C   0  0  0  0  0  0  0  0  0  0  0  0
  1  5  1  0
  2  4  1  0
  2  7  1  0
  3  4  2  0
  4  5  1  0
  4  6  2  0
  7  9  1  0
  8 13  1  0
  8 14  1  0
  9 11  2  0
  9 16  1  0
 10 14  1  0
 10 15  1  0
 11 12  1  0
 12 13  2  0
 13 15  1  0
 15 16  2  0
M  END
$$$$
