CypD-x0259-pandda-model
     RDKit          3D

 15 15  0  0  0  0  0  0  0  0999 V2000
   -2.7215   13.2434    2.7155 C   0  0  0  0  0  0  0  0  0  0  0  0
   -3.2428   13.6993    1.5835 N   0  0  0  0  0  0  0  0  0  0  0  0
   -0.9527   15.6923    1.8036 O   0  0  0  0  0  0  0  0  0  0  0  0
   -2.5662   11.6501    2.9316 S   0  0  0  0  0  0  0  0  0  0  0  0
   -2.4349   15.4920    3.6780 C   0  0  0  0  0  0  0  0  0  0  0  0
   -2.3514   14.0890    3.6873 N   0  0  0  0  0  0  0  0  0  0  0  0
   -3.2354   16.1348    4.6133 C   0  0  0  0  0  0  0  0  0  0  0  0
   -3.3629   17.5130    4.6134 C   0  0  0  0  0  0  0  0  0  0  0  0
   -2.7055   18.2691    3.6571 C   0  0  0  0  0  0  0  0  0  0  0  0
   -1.9078   17.6458    2.7136 C   0  0  0  0  0  0  0  0  0  0  0  0
   -1.7500   16.2700    2.7373 C   0  0  0  0  0  0  0  0  0  0  0  0
    0.3833   15.3923    2.1552 C   0  0  0  0  0  0  0  0  0  0  0  0
    0.9735   14.7098    1.1802 F   0  0  0  0  0  0  0  0  0  0  0  0
    1.0821   16.5003    2.3455 F   0  0  0  0  0  0  0  0  0  0  0  0
    0.4723   14.6602    3.2553 F   0  0  0  0  0  0  0  0  0  0  0  0
  1  2  1  0
  1  4  2  0
  1  6  1  0
  3 11  1  0
  3 12  1  0
  5  6  1  0
  5  7  2  0
  5 11  1  0
  7  8  1  0
  8  9  2  0
  9 10  1  0
 10 11  2  0
 12 13  1  0
 12 14  1  0
 12 15  1  0
M  END
$$$$
