CypD-x0442-pandda-model
     RDKit          3D

 12 12  0  0  0  0  0  0  0  0999 V2000
    0.3441   14.9763    1.1033 C   0  0  0  0  0  0  0  0  0  0  0  0
   -1.0640   13.6617    2.5950 N   0  0  0  0  0  0  0  0  0  0  0  0
   -2.6396   12.3044    1.7579 O   0  0  0  0  0  0  0  0  0  0  0  0
   -1.0891   14.6859    1.5326 C   0  0  0  0  0  0  0  0  0  0  0  0
   -1.8554   11.8817    3.8269 N   0  0  0  0  0  0  0  0  0  0  0  0
   -3.5254    9.4475    5.5288 O   0  0  0  0  0  0  0  0  0  0  0  0
   -1.8972   12.6001    2.6819 C   0  0  0  0  0  0  0  0  0  0  0  0
   -2.7287   10.4866    5.4833 N   0  0  0  0  0  0  0  0  0  0  0  0
   -2.6176   10.7971    4.2410 C   0  0  0  0  0  0  0  0  0  0  0  0
   -3.3522    9.9177    3.4496 C   0  0  0  0  0  0  0  0  0  0  0  0
   -3.9186    9.0880    4.3361 C   0  0  0  0  0  0  0  0  0  0  0  0
   -4.8654    7.9158    4.1749 C   0  0  0  0  0  0  0  0  0  0  0  0
  1  4  1  0
  2  4  1  0
  2  7  1  0
  3  7  2  0
  5  7  1  0
  5  9  1  0
  6  8  1  0
  6 11  1  0
  8  9  2  0
  9 10  1  0
 10 11  2  0
 11 12  1  0
M  END
$$$$
