CypD-x0767-pandda-model
     RDKit          3D

 16 17  0  0  0  0  0  0  0  0999 V2000
   -1.8080   14.2740   -2.5410 C   0  0  0  0  0  0  0  0  0  0  0  0
   -3.0210   13.2860    0.2650 N   0  0  0  0  0  0  0  0  0  0  0  0
   -2.5360   10.9520   -0.4220 O   0  0  0  0  0  0  0  0  0  0  0  0
   -2.9540   12.2350   -0.9580 S   0  0  0  0  0  0  0  0  0  0  0  0
   -1.6240   12.8450   -2.0130 C   0  0  0  0  0  0  0  0  0  0  0  0
   -4.2120   12.3060   -1.6820 O   0  0  0  0  0  0  0  0  0  0  0  0
   -1.9890   13.3540    1.2560 C   0  0  0  0  0  0  0  0  0  0  0  0
   -2.7480   17.4670    4.9860 O   0  0  0  0  0  0  0  0  0  0  0  0
   -2.2000   14.5150    2.2190 C   0  0  0  0  0  0  0  0  0  0  0  0
   -3.8790   15.5100    5.3210 O   0  0  0  0  0  0  0  0  0  0  0  0
   -1.5140   15.7120    2.0250 C   0  0  0  0  0  0  0  0  0  0  0  0
   -1.6460   16.7720    2.9140 C   0  0  0  0  0  0  0  0  0  0  0  0
   -2.4760   16.5990    4.0030 C   0  0  0  0  0  0  0  0  0  0  0  0
   -3.6710   16.8190    5.8560 C   0  0  0  0  0  0  0  0  0  0  0  0
   -3.1570   15.4320    4.1980 C   0  0  0  0  0  0  0  0  0  0  0  0
   -3.0490   14.3770    3.3100 C   0  0  0  0  0  0  0  0  0  0  0  0
  1  5  1  0
  2  4  1  0
  2  7  1  0
  3  4  2  0
  4  5  1  0
  4  6  2  0
  7  9  1  0
  8 13  1  0
  8 14  1  0
  9 11  2  0
  9 16  1  0
 10 14  1  0
 10 15  1  0
 11 12  1  0
 12 13  2  0
 13 15  1  0
 15 16  2  0
M  CHG  1   2  -1
M  END
$$$$
