CypD-x0136-pandda-model
     RDKit          3D

 15 16  0  0  1  0  0  0  0  0999 V2000
   -2.1660   13.7910    3.6210 C   0  0  0  0  0  0  0  0  0  0  0  0
   -1.0760   13.0580    3.9400 N   0  0  0  0  0  0  0  0  0  0  0  0
   -2.9620   13.3510    2.8080 O   0  0  0  0  0  0  0  0  0  0  0  0
   -0.2220   12.4220    2.9160 C   0  0  0  0  0  0  0  0  0  0  0  0
   -2.3580   14.9920    4.2450 N   0  0  0  0  0  0  0  0  0  0  0  0
    1.5560   13.8860    3.6740 O   0  0  0  0  0  0  0  0  0  0  0  0
    1.2620   12.5650    3.3030 C   0  0  2  0  0  0  0  0  0  0  0  0
   -2.4970   17.8270    4.1180 O   0  0  0  0  0  0  0  0  0  0  0  0
    2.2300   12.2130    2.1780 C   0  0  0  0  0  0  0  0  0  0  0  0
    3.3950   13.1420    2.4460 C   0  0  0  0  0  0  0  0  0  0  0  0
    2.7080   14.3590    3.0460 C   0  0  0  0  0  0  0  0  0  0  0  0
   -1.2240   15.8670    4.6670 C   0  0  0  0  0  0  0  0  0  0  0  0
   -1.2500   17.2230    3.9480 C   0  0  0  0  0  0  0  0  0  0  0  0
   -3.5300   17.0820    3.5450 C   0  0  0  0  0  0  0  0  0  0  0  0
   -3.6640   15.7040    4.2150 C   0  0  0  0  0  0  0  0  0  0  0  0
  1  2  1  0
  1  3  2  0
  1  5  1  0
  2  4  1  0
  7  4  1  6
  5 12  1  0
  5 15  1  0
  6  7  1  0
  6 11  1  0
  7  9  1  0
  8 13  1  0
  8 14  1  0
  9 10  1  0
 10 11  1  0
 12 13  1  0
 14 15  1  0
M  END
$$$$
