CypD-x0515-pandda-model
     RDKit          3D

 14 14  0  0  0  0  0  0  0  0999 V2000
    0.2269    8.7719    3.6764 C   0  0  0  0  0  0  0  0  0  0  0  0
   -0.0090    7.3122    3.8273 N   0  0  0  0  0  0  0  0  0  0  0  0
    2.1474    6.7787    3.3987 O   0  0  0  0  0  0  0  0  0  0  0  0
    1.0159    6.4199    3.6369 C   0  0  0  0  0  0  0  0  0  0  0  0
   -0.7829    6.6865    1.1430 O   0  0  0  0  0  0  0  0  0  0  0  0
    0.7417    4.9358    3.7186 C   0  0  0  0  0  0  0  0  0  0  0  0
   -2.8345    6.6480    0.7462 O   0  0  0  0  0  0  0  0  0  0  0  0
   -1.3421    6.9584    4.0628 C   0  0  0  0  0  0  0  0  0  0  0  0
   -1.7490    6.9123    5.3915 C   0  0  0  0  0  0  0  0  0  0  0  0
   -3.0671    6.7041    5.7351 C   0  0  0  0  0  0  0  0  0  0  0  0
   -4.0028    6.5211    4.7375 C   0  0  0  0  0  0  0  0  0  0  0  0
   -3.6032    6.5318    3.4164 C   0  0  0  0  0  0  0  0  0  0  0  0
   -2.2712    6.7280    3.0318 C   0  0  0  0  0  0  0  0  0  0  0  0
   -1.9394    6.7007    1.6149 C   0  0  0  0  0  0  0  0  0  0  0  0
  1  2  1  0
  2  4  1  0
  2  8  1  0
  3  4  2  0
  4  6  1  0
  5 14  1  0
  7 14  2  0
  8  9  2  0
  8 13  1  0
  9 10  1  0
 10 11  2  0
 11 12  1  0
 12 13  2  0
 13 14  1  0
M  CHG  1   5  -1
M  END
$$$$
