CypD-x0422-pandda-model
     RDKit          3D

 14 14  0  0  0  0  0  0  0  0999 V2000
   -0.8930   18.8930    1.5790 C   0  0  0  0  0  0  0  0  0  0  0  0
   -0.8480   13.6350    3.7790 N   0  0  0  0  0  0  0  0  0  0  0  0
   -1.2170   12.2430    2.0370 O   0  0  0  0  0  0  0  0  0  0  0  0
   -0.8890   17.4830    2.1410 C   0  0  0  0  0  0  0  0  0  0  0  0
   -1.7250   11.6240    5.4850 O   0  0  0  0  0  0  0  0  0  0  0  0
   -2.0020   16.9850    2.7940 C   0  0  0  0  0  0  0  0  0  0  0  0
   -2.0040   15.7030    3.3140 C   0  0  0  0  0  0  0  0  0  0  0  0
   -3.2600   15.1990    4.0130 C   0  0  0  0  0  0  0  0  0  0  0  0
   -0.8670   14.9030    3.1900 C   0  0  0  0  0  0  0  0  0  0  0  0
   -1.1480   12.4220    3.2340 C   0  0  0  0  0  0  0  0  0  0  0  0
   -1.4120   11.2370    4.1710 C   0  0  0  0  0  0  0  0  0  0  0  0
    0.2550   15.4000    2.5260 C   0  0  0  0  0  0  0  0  0  0  0  0
    1.5140   14.5600    2.3680 C   0  0  0  0  0  0  0  0  0  0  0  0
    0.2320   16.6840    2.0070 C   0  0  0  0  0  0  0  0  0  0  0  0
  1  4  1  0
  2  9  1  0
  2 10  1  0
  3 10  2  0
  4  6  2  0
  4 14  1  0
  5 11  1  0
  6  7  1  0
  7  8  1  0
  7  9  2  0
  9 12  1  0
 10 11  1  0
 12 13  1  0
 12 14  2  0
M  END
$$$$
