CypD-x0603-pandda-model
     RDKit          3D

 14 14  0  0  1  0  0  0  0  0999 V2000
    0.6965   15.5060    1.4806 C   0  0  0  0  0  0  0  0  0  0  0  0
   -1.3421   14.4281    0.8447 N   0  0  0  0  0  0  0  0  0  0  0  0
   -3.3808   13.4711    1.9491 O   0  0  0  0  0  0  0  0  0  0  0  0
   -2.1423   13.0597    1.3501 S   0  0  0  0  0  0  0  0  0  0  0  0
   -0.7032   15.1134    1.9272 C   0  0  2  0  0  0  0  0  0  0  0  0
   -2.3962   18.3742    2.1783 N   0  0  0  0  0  0  0  0  0  0  0  0
   -1.2520   12.2501    2.1583 O   0  0  0  0  0  0  0  0  0  0  0  0
   -2.5308   12.2003   -0.1549 C   0  0  0  0  0  0  0  0  0  0  0  0
   -2.9304   17.7144    3.2176 N   0  0  0  0  0  0  0  0  0  0  0  0
   -1.5574   16.3098    2.2949 C   0  0  0  0  0  0  0  0  0  0  0  0
   -1.5819   17.5295    1.6286 C   0  0  0  0  0  0  0  0  0  0  0  0
   -3.9035   18.3635    4.1036 C   0  0  0  0  0  0  0  0  0  0  0  0
   -2.4570   16.4510    3.2958 C   0  0  0  0  0  0  0  0  0  0  0  0
   -2.9331   15.4427    4.3313 C   0  0  0  0  0  0  0  0  0  0  0  0
  5  1  1  6
  2  4  1  0
  2  5  1  0
  3  4  2  0
  4  7  2  0
  4  8  1  0
  5 10  1  0
  6  9  1  0
  6 11  2  0
  9 12  1  0
  9 13  1  0
 10 11  1  0
 10 13  2  0
 13 14  1  0
M  END
$$$$
