CypD-x0202-pandda-model
     RDKit          3D

 15 16  0  0  1  0  0  0  0  0999 V2000
   -4.7011    7.4544    4.1859 C   0  0  0  0  0  0  0  0  0  0  0  0
   -2.4628   10.5000    5.4646 N   0  0  0  0  0  0  0  0  0  0  0  0
   -2.7280   12.1324    2.3371 O   0  0  0  0  0  0  0  0  0  0  0  0
   -3.1876    9.0276    5.9299 S   0  0  0  0  0  0  0  0  0  0  0  0
   -3.8753    8.7118    4.3737 C   0  0  0  0  0  0  0  0  0  0  0  0
   -1.4156   12.7913    3.9999 N   0  0  0  0  0  0  0  0  0  0  0  0
   -2.3431   15.3135    5.0929 O   0  0  0  0  0  0  0  0  0  0  0  0
   -3.5284    9.7237    3.5751 C   0  0  0  0  0  0  0  0  0  0  0  0
   -2.7310   10.7268    4.2175 C   0  0  0  0  0  0  0  0  0  0  0  0
   -2.2991   11.9045    3.4627 C   0  0  0  0  0  0  0  0  0  0  0  0
   -1.0541   14.1160    3.4314 C   0  0  0  0  0  0  0  0  0  0  0  0
   -2.1319   15.1778    3.7239 C   0  0  2  0  0  0  0  0  0  0  0  0
   -1.7575   16.5803    3.2591 C   0  0  0  0  0  0  0  0  0  0  0  0
   -2.4249   17.4903    4.2813 C   0  0  0  0  0  0  0  0  0  0  0  0
   -2.9550   16.5368    5.3480 C   0  0  0  0  0  0  0  0  0  0  0  0
  1  5  1  0
  2  4  1  0
  2  9  2  0
  3 10  2  0
  4  5  1  0
  5  8  2  0
  6 10  1  0
  6 11  1  0
  7 12  1  0
  7 15  1  0
  8  9  1  0
  9 10  1  0
 12 11  1  1
 12 13  1  0
 13 14  1  0
 14 15  1  0
M  END
$$$$
