CypD-x0292-pandda-model
     RDKit          3D

 13 13  0  0  1  0  0  0  0  0999 V2000
   -0.0110   10.7910    1.7610 C   0  0  0  0  0  0  0  0  0  0  0  0
   -1.6580   12.4770    3.5940 N   0  0  0  0  0  0  0  0  0  0  0  0
   -2.5950   10.9330    5.6370 O   0  0  0  0  0  0  0  0  0  0  0  0
   -0.7250   10.2530    3.0160 C   0  0  0  0  0  0  0  0  0  0  0  0
   -3.5400    9.2920    4.4290 N   0  0  0  0  0  0  0  0  0  0  0  0
   -2.8270    6.7790    3.8550 O   0  0  0  0  0  0  0  0  0  0  0  0
    0.2840   10.1840    4.1800 C   0  0  0  0  0  0  0  0  0  0  0  0
   -2.0170   11.0440    3.3500 C   0  0  1  0  0  0  0  0  0  0  0  0
   -2.7530   10.4050    4.5560 C   0  0  0  0  0  0  0  0  0  0  0  0
   -4.0480    8.7210    3.1370 C   0  0  0  0  0  0  0  0  0  0  0  0
   -3.9230    7.1860    3.0880 C   0  0  0  0  0  0  0  0  0  0  0  0
   -2.9930    6.9940    5.2380 C   0  0  0  0  0  0  0  0  0  0  0  0
   -3.7040    8.3290    5.5590 C   0  0  0  0  0  0  0  0  0  0  0  0
  1  4  1  0
  8  2  1  1
  3  9  2  0
  4  7  1  0
  4  8  1  0
  5  9  1  0
  5 10  1  0
  5 13  1  0
  6 11  1  0
  6 12  1  0
  8  9  1  0
 10 11  1  0
 12 13  1  0
M  CHG  1   2   1
M  END
$$$$
