CypD-x0280-pandda-model
     RDKit          3D

 15 16  0  0  1  0  0  0  0  0999 V2000
   -2.3850   16.9710    6.1990 C   0  0  0  0  0  0  0  0  0  0  0  0
   -2.5630   16.1350    5.0070 N   0  0  0  0  0  0  0  0  0  0  0  0
   -2.8650   12.7280    2.1890 O   0  0  0  0  0  0  0  0  0  0  0  0
   -3.1450   16.5130    3.8570 C   0  0  0  0  0  0  0  0  0  0  0  0
   -2.1630   14.8560    4.9610 N   0  0  0  0  0  0  0  0  0  0  0  0
   -2.7720   10.1070    5.6370 O   0  0  0  0  0  0  0  0  0  0  0  0
   -3.1300   15.4430    3.0440 C   0  0  0  0  0  0  0  0  0  0  0  0
   -1.6470   12.1260    3.9450 N   0  0  0  0  0  0  0  0  0  0  0  0
   -2.5240   14.4130    3.7700 C   0  0  0  0  0  0  0  0  0  0  0  0
   -2.3600   13.0610    3.2550 C   0  0  0  0  0  0  0  0  0  0  0  0
   -1.5740   10.6760    3.6290 C   0  0  0  0  0  0  0  0  0  0  0  0
   -1.6230    9.8020    4.8950 C   0  0  2  0  0  0  0  0  0  0  0  0
   -1.7240    8.3150    4.5730 C   0  0  0  0  0  0  0  0  0  0  0  0
   -3.2180    8.0750    4.5560 C   0  0  0  0  0  0  0  0  0  0  0  0
   -3.7260    9.0840    5.5720 C   0  0  0  0  0  0  0  0  0  0  0  0
  1  2  1  0
  2  4  1  0
  2  5  1  0
  3 10  2  0
  4  7  2  0
  5  9  2  0
  6 12  1  0
  6 15  1  0
  7  9  1  0
  8 10  1  0
  8 11  1  0
  9 10  1  0
 12 11  1  6
 12 13  1  0
 13 14  1  0
 14 15  1  0
M  END
$$$$
