CypD-x0618-pandda-model
     RDKit          3D

 15 15  0  0  1  0  0  0  0  0999 V2000
   -1.9190   16.9750    5.0780 C   0  0  0  0  0  0  0  0  0  0  0  0
   -1.0420   16.3090    2.8340 N   0  0  0  0  0  0  0  0  0  0  0  0
   -0.5790   18.3280    3.7500 O   0  0  0  0  0  0  0  0  0  0  0  0
   -1.8840   10.6500    4.5660 S   0  0  0  0  0  0  0  0  0  0  0  0
   -1.1300   17.2550    3.8240 C   0  0  0  0  0  0  0  0  0  0  0  0
   -1.6200   12.2360    4.1050 N   0  0  0  0  0  0  0  0  0  0  0  0
   -2.4910   10.7610    5.8690 O   0  0  0  0  0  0  0  0  0  0  0  0
   -0.3200   16.5960    1.5660 C   0  0  0  0  0  0  0  0  0  0  0  0
   -0.6410    9.9240    4.4210 O   0  0  0  0  0  0  0  0  0  0  0  0
    0.8630   15.6320    1.4320 C   0  0  0  0  0  0  0  0  0  0  0  0
    0.4170   14.1650    1.5360 C   0  0  0  0  0  0  0  0  0  0  0  0
   -0.3920   13.9220    2.8260 C   0  0  2  0  0  0  0  0  0  0  0  0
   -0.8340   12.4520    2.9030 C   0  0  0  0  0  0  0  0  0  0  0  0
   -3.1000   10.0520    3.4110 C   0  0  0  0  0  0  0  0  0  0  0  0
   -1.5700   14.9150    2.9120 C   0  0  0  0  0  0  0  0  0  0  0  0
  1  5  1  0
  2  5  1  0
  2  8  1  0
  2 15  1  0
  3  5  2  0
  4  6  1  0
  4  7  2  0
  4  9  2  0
  4 14  1  0
  6 13  1  0
  8 10  1  0
 10 11  1  0
 11 12  1  0
 12 13  1  6
 12 15  1  0
M  END
$$$$
