CypD-x0505-pandda-model
     RDKit          3D

 14 14  0  0  0  0  0  0  0  0999 V2000
   -4.1836    8.5220    5.0013 C   0  0  0  0  0  0  0  0  0  0  0  0
   -0.9554   11.8358    3.3858 N   0  0  0  0  0  0  0  0  0  0  0  0
   -3.0310    8.9040    4.2724 O   0  0  0  0  0  0  0  0  0  0  0  0
   -2.4196   10.0652    4.4823 C   0  0  0  0  0  0  0  0  0  0  0  0
   -0.2923   14.6614    2.6132 N   0  0  0  0  0  0  0  0  0  0  0  0
   -2.7669   10.8230    5.3563 O   0  0  0  0  0  0  0  0  0  0  0  0
   -1.2403   10.3744    3.5568 C   0  0  0  0  0  0  0  0  0  0  0  0
   -2.6765   12.1909    2.0216 O   0  0  0  0  0  0  0  0  0  0  0  0
   -1.7354   12.6709    2.6377 C   0  0  0  0  0  0  0  0  0  0  0  0
   -0.4277   15.9643    2.6075 O   0  0  0  0  0  0  0  0  0  0  0  0
   -1.4656   14.0946    2.6143 C   0  0  0  0  0  0  0  0  0  0  0  0
   -2.4324   15.0858    2.6133 C   0  0  0  0  0  0  0  0  0  0  0  0
   -1.7202   16.2139    2.6230 C   0  0  0  0  0  0  0  0  0  0  0  0
   -2.1950   17.6531    2.6560 C   0  0  0  0  0  0  0  0  0  0  0  0
  1  3  1  0
  2  7  1  0
  2  9  1  0
  3  4  1  0
  4  6  2  0
  4  7  1  0
  5 10  1  0
  5 11  2  0
  8  9  2  0
  9 11  1  0
 10 13  1  0
 11 12  1  0
 12 13  2  0
 13 14  1  0
M  END
$$$$
