CypD-x0596-pandda-model
     RDKit          3D

 12 12  0  0  1  0  0  0  0  0999 V2000
   -2.3669   11.2004    3.0971 C   0  0  0  0  0  0  0  0  0  0  0  0
   -3.1816    8.6985    3.8261 N   0  0  0  0  0  0  0  0  0  0  0  0
   -0.9221    9.5446    4.5330 O   0  0  0  0  0  0  0  0  0  0  0  0
   -2.2848   10.0069    4.4131 S   0  0  0  0  0  0  0  0  0  0  0  0
   -4.6377    8.8616    3.9553 C   0  0  0  0  0  0  0  0  0  0  0  0
   -0.9364    5.7720    4.4562 N   0  0  0  0  0  0  0  0  0  0  0  0
   -2.9562   10.5229    5.5844 O   0  0  0  0  0  0  0  0  0  0  0  0
   -5.0907    7.8584    4.9934 C   0  0  0  0  0  0  0  0  0  0  0  0
   -1.8372    6.4722    2.5592 O   0  0  0  0  0  0  0  0  0  0  0  0
   -4.1136    6.7209    4.8176 C   0  0  0  0  0  0  0  0  0  0  0  0
   -2.8037    7.4444    4.5355 C   0  0  1  0  0  0  0  0  0  0  0  0
   -1.8192    6.5284    3.7723 C   0  0  0  0  0  0  0  0  0  0  0  0
  1  4  1  0
  2  4  1  0
  2  5  1  0
  2 11  1  0
  3  4  2  0
  4  7  2  0
  5  8  1  0
  6 12  1  0
  8 10  1  0
  9 12  2  0
 10 11  1  0
 11 12  1  6
M  END
$$$$
