CypD-x0455-pandda-model
     RDKit          3D

 12 12  0  0  0  0  0  0  0  0999 V2000
   -3.2230   15.0360    4.3600 C   0  0  0  0  0  0  0  0  0  0  0  0
   -3.5240   13.9090    3.4760 N   0  0  0  0  0  0  0  0  0  0  0  0
   -1.1270   14.0920    2.7630 O   0  0  0  0  0  0  0  0  0  0  0  0
   -2.1750   13.1060    2.8700 S   0  0  0  0  0  0  0  0  0  0  0  0
   -1.7320   11.8870    4.1210 C   0  0  0  0  0  0  0  0  0  0  0  0
   -2.0820    9.7250    2.9400 N   0  0  0  0  0  0  0  0  0  0  0  0
   -2.6490   12.4650    1.6600 O   0  0  0  0  0  0  0  0  0  0  0  0
   -2.3350   10.5050    3.9330 C   0  0  0  0  0  0  0  0  0  0  0  0
   -2.7880    8.6470    3.1300 O   0  0  0  0  0  0  0  0  0  0  0  0
   -3.2090    9.8830    4.8230 C   0  0  0  0  0  0  0  0  0  0  0  0
   -3.4730    8.7050    4.2400 C   0  0  0  0  0  0  0  0  0  0  0  0
   -4.3670    7.5530    4.6540 C   0  0  0  0  0  0  0  0  0  0  0  0
  1  2  1  0
  2  4  1  0
  3  4  2  0
  4  5  1  0
  4  7  2  0
  5  8  1  0
  6  8  2  0
  6  9  1  0
  8 10  1  0
  9 11  1  0
 10 11  2  0
 11 12  1  0
M  END
$$$$
