CypD-x0579-pandda-model
     RDKit          3D

 14 14  0  0  1  0  0  0  0  0999 V2000
   -3.5076    8.3521    5.6143 C   0  0  0  0  0  0  0  0  0  0  0  0
   -3.2237    9.6449    3.6231 N   0  0  0  0  0  0  0  0  0  0  0  0
   -1.4113   10.4657    2.0982 O   0  0  0  0  0  0  0  0  0  0  0  0
   -1.7569   10.4430    3.5000 S   0  0  0  0  0  0  0  0  0  0  0  0
   -3.2963    8.2781    4.1083 C   0  0  1  0  0  0  0  0  0  0  0  0
   -0.7924    9.9413    4.4566 O   0  0  0  0  0  0  0  0  0  0  0  0
   -2.2286   12.0954    3.9452 C   0  0  0  0  0  0  0  0  0  0  0  0
   -2.1454    7.3668    3.6449 C   0  0  0  0  0  0  0  0  0  0  0  0
   -1.2140    6.8201    4.5254 C   0  0  0  0  0  0  0  0  0  0  0  0
   -0.2191    5.9637    4.0759 C   0  0  0  0  0  0  0  0  0  0  0  0
   -0.1274    5.6465    2.7322 C   0  0  0  0  0  0  0  0  0  0  0  0
   -1.0369    6.1856    1.8402 C   0  0  0  0  0  0  0  0  0  0  0  0
   -2.0367    7.0225    2.3024 C   0  0  0  0  0  0  0  0  0  0  0  0
   -3.1933    7.6199    1.1385 Cl  0  0  0  0  0  0  0  0  0  0  0  0
  5  1  1  1
  2  4  1  0
  2  5  1  0
  3  4  2  0
  4  6  2  0
  4  7  1  0
  5  8  1  0
  8  9  2  0
  8 13  1  0
  9 10  1  0
 10 11  2  0
 11 12  1  0
 12 13  2  0
 13 14  1  0
M  END
$$$$
