CypD-x0292-pandda-model
     RDKit          3D

 13 13  0  0  1  0  0  0  0  0999 V2000
   -0.3435   11.6969    1.5498 C   0  0  0  0  0  0  0  0  0  0  0  0
   -2.2415   12.8361    3.5224 N   0  0  0  0  0  0  0  0  0  0  0  0
   -2.7039   11.0890    5.5620 O   0  0  0  0  0  0  0  0  0  0  0  0
   -0.8083   10.9405    2.8044 C   0  0  0  0  0  0  0  0  0  0  0  0
   -3.1018    9.2187    4.3703 N   0  0  0  0  0  0  0  0  0  0  0  0
   -4.2084    6.6176    4.1640 O   0  0  0  0  0  0  0  0  0  0  0  0
    0.2759   11.0720    3.8919 C   0  0  0  0  0  0  0  0  0  0  0  0
   -2.2316   11.3635    3.2621 C   0  0  1  0  0  0  0  0  0  0  0  0
   -2.7076   10.5306    4.4863 C   0  0  0  0  0  0  0  0  0  0  0  0
   -3.2382    8.4942    3.0652 C   0  0  0  0  0  0  0  0  0  0  0  0
   -4.3846    7.4764    3.0850 C   0  0  0  0  0  0  0  0  0  0  0  0
   -4.3659    7.2630    5.3923 C   0  0  0  0  0  0  0  0  0  0  0  0
   -3.2886    8.3451    5.5870 C   0  0  0  0  0  0  0  0  0  0  0  0
  1  4  1  0
  8  2  1  1
  3  9  2  0
  4  7  1  0
  4  8  1  0
  5  9  1  0
  5 10  1  0
  5 13  1  0
  6 11  1  0
  6 12  1  0
  8  9  1  0
 10 11  1  0
 12 13  1  0
M  CHG  1   2   1
M  END
$$$$
