CypD-x0718-pandda-model
     RDKit          3D

 17 18  0  0  1  0  0  0  0  0999 V2000
   -0.7059   10.1486   -1.4498 C   0  0  0  0  0  0  0  0  0  0  0  0
   -1.0691   14.6329    0.4470 N   0  0  0  0  0  0  0  0  0  0  0  0
   -1.1564   11.4868   -1.3753 O   0  0  0  0  0  0  0  0  0  0  0  0
   -0.4818   12.3946   -0.6714 C   0  0  0  0  0  0  0  0  0  0  0  0
    0.4783   12.0862   -0.0039 O   0  0  0  0  0  0  0  0  0  0  0  0
   -0.9346   13.8577   -0.8324 C   0  0  2  0  0  0  0  0  0  0  0  0
   -1.1640   16.6462   -1.7245 O   0  0  0  0  0  0  0  0  0  0  0  0
    0.0557   14.6614   -1.6860 C   0  0  0  0  0  0  0  0  0  0  0  0
   -2.7526   13.3740    1.1678 O   0  0  0  0  0  0  0  0  0  0  0  0
   -0.0437   16.0788   -1.1584 C   0  0  2  0  0  0  0  0  0  0  0  0
   -1.4372   16.0676    3.0299 O   0  0  0  0  0  0  0  0  0  0  0  0
   -0.2865   15.8983    0.3419 C   0  0  0  0  0  0  0  0  0  0  0  0
   -2.0352   14.3429    1.3926 C   0  0  0  0  0  0  0  0  0  0  0  0
   -2.2564   15.1038    2.6099 C   0  0  0  0  0  0  0  0  0  0  0  0
   -3.2742   14.9985    3.5118 C   0  0  0  0  0  0  0  0  0  0  0  0
   -3.0524   15.9556    4.5021 C   0  0  0  0  0  0  0  0  0  0  0  0
   -1.9088   16.5757    4.1472 C   0  0  0  0  0  0  0  0  0  0  0  0
  1  3  1  0
  2  6  1  0
  2 12  1  0
  2 13  1  0
  3  4  1  0
  4  5  2  0
  6  4  1  1
  6  8  1  0
 10  7  1  6
  8 10  1  0
  9 13  2  0
 10 12  1  0
 11 14  1  0
 11 17  1  0
 13 14  1  0
 14 15  2  0
 15 16  1  0
 16 17  2  0
M  END
$$$$
