CypD-x0365-pandda-model
     RDKit          3D

 15 16  0  0  1  0  0  0  0  0999 V2000
   -2.8250   13.7350    3.8890 C   0  0  0  0  0  0  0  0  0  0  0  0
   -2.9140   14.8440    2.8920 N   0  0  0  0  0  0  0  0  0  0  0  0
   -2.9050   12.8950    0.8240 O   0  0  0  0  0  0  0  0  0  0  0  0
   -1.8680   14.7860    1.8120 C   0  0  1  0  0  0  0  0  0  0  0  0
   -0.6600   12.9300    0.5380 N   0  0  0  0  0  0  0  0  0  0  0  0
   -0.5010   15.1440    2.4140 C   0  0  0  0  0  0  0  0  0  0  0  0
    0.5980   14.9350    1.3660 C   0  0  0  0  0  0  0  0  0  0  0  0
    0.6720   13.4680    0.9290 C   0  0  0  0  0  0  0  0  0  0  0  0
   -1.8450   13.4550    1.0140 C   0  0  0  0  0  0  0  0  0  0  0  0
   -0.6220   11.8430   -0.3490 C   0  0  0  0  0  0  0  0  0  0  0  0
   -0.1660   10.5970    0.0640 C   0  0  0  0  0  0  0  0  0  0  0  0
   -0.1020    9.5400   -0.8270 C   0  0  0  0  0  0  0  0  0  0  0  0
   -0.5020    9.7170   -2.1410 C   0  0  0  0  0  0  0  0  0  0  0  0
   -0.9670   10.9510   -2.5600 C   0  0  0  0  0  0  0  0  0  0  0  0
   -1.0210   12.0060   -1.6690 C   0  0  0  0  0  0  0  0  0  0  0  0
  1  2  1  0
  4  2  1  1
  3  9  2  0
  4  6  1  0
  4  9  1  0
  5  8  1  0
  5  9  1  0
  5 10  1  0
  6  7  1  0
  7  8  1  0
 10 11  2  0
 10 15  1  0
 11 12  1  0
 12 13  2  0
 13 14  1  0
 14 15  2  0
M  CHG  1   2   1
M  END
$$$$
