CypD-x0771-pandda-model
     RDKit          3D

 14 14  0  0  1  0  0  0  0  0999 V2000
   -1.5220   18.1785    5.1706 C   0  0  0  0  0  0  0  0  0  0  0  0
   -1.8335   13.9176    2.5259 N   0  0  1  0  0  0  0  0  0  0  0  0
    3.4662   12.7537    0.1822 O   0  0  0  0  0  0  0  0  0  0  0  0
    2.1563   12.6333    0.7857 S   0  0  0  0  0  0  0  0  0  0  0  0
   -1.6527   16.7930    4.6382 C   0  0  0  0  0  0  0  0  0  0  0  0
    1.6322   11.3162    1.0671 O   0  0  0  0  0  0  0  0  0  0  0  0
   -1.7920   15.6698    4.2791 C   0  0  0  0  0  0  0  0  0  0  0  0
   -2.0073   14.2296    3.9721 C   0  0  0  0  0  0  0  0  0  0  0  0
   -2.9232   14.6047    1.7670 C   0  0  0  0  0  0  0  0  0  0  0  0
   -0.4726   14.1770    1.9498 C   0  0  0  0  0  0  0  0  0  0  0  0
   -0.4424   13.5679    0.5244 C   0  0  0  0  0  0  0  0  0  0  0  0
    0.9372   13.5325   -0.1658 C   0  0  0  0  0  0  0  0  0  0  0  0
    2.0451   13.5947    2.2892 C   0  0  0  0  0  0  0  0  0  0  0  0
    0.6171   13.5723    2.8696 C   0  0  0  0  0  0  0  0  0  0  0  0
  1  5  1  0
  2  8  1  0
  2  9  1  6
  2 10  1  0
  3  4  2  0
  4  6  2  0
  4 12  1  0
  4 13  1  0
  5  7  3  0
  7  8  1  0
 10 11  1  0
 10 14  1  0
 11 12  1  0
 13 14  1  0
M  CHG  1   2   1
M  END
$$$$
