CypD-x0057-pandda-model
     RDKit          3D

 13 13  0  0  0  0  0  0  0  0999 V2000
   -2.1917    6.9695    4.0550 C   0  0  0  0  0  0  0  0  0  0  0  0
   -3.5079    7.3496    3.5290 N   0  0  0  0  0  0  0  0  0  0  0  0
   -2.9630   10.3140    5.3047 O   0  0  0  0  0  0  0  0  0  0  0  0
   -4.0945    8.4594    4.3425 C   0  0  0  0  0  0  0  0  0  0  0  0
   -3.1715   10.3575    3.0472 N   0  0  0  0  0  0  0  0  0  0  0  0
   -3.3474    9.8020    4.2777 C   0  0  0  0  0  0  0  0  0  0  0  0
   -2.8033   11.6947    1.2781 N   0  0  0  0  0  0  0  0  0  0  0  0
   -2.6536   11.5508    2.5894 C   0  0  0  0  0  0  0  0  0  0  0  0
   -2.0613   12.5193    3.3973 C   0  0  0  0  0  0  0  0  0  0  0  0
   -1.6203   13.7026    2.8471 C   0  0  0  0  0  0  0  0  0  0  0  0
   -0.9908   14.7943    3.6866 C   0  0  0  0  0  0  0  0  0  0  0  0
   -1.7837   13.8508    1.4861 C   0  0  0  0  0  0  0  0  0  0  0  0
   -2.3642   12.8307    0.7603 C   0  0  0  0  0  0  0  0  0  0  0  0
  1  2  1  0
  2  4  1  0
  3  6  2  0
  4  6  1  0
  5  6  1  0
  5  8  1  0
  7  8  2  0
  7 13  1  0
  8  9  1  0
  9 10  2  0
 10 11  1  0
 10 12  1  0
 12 13  2  0
M  END
$$$$
