CypD-x0385-pandda-model
     RDKit          3D

 14 15  0  0  0  0  0  0  0  0999 V2000
   -4.0200   12.2930   -3.3730 C   0  0  0  0  0  0  0  0  0  0  0  0
   -3.1070   12.7880   -2.6090 N   0  0  0  0  0  0  0  0  0  0  0  0
   -4.3660   12.5440   -0.7320 O   0  0  0  0  0  0  0  0  0  0  0  0
   -1.8550   13.3370   -3.1920 C   0  0  0  0  0  0  0  0  0  0  0  0
   -2.2690   13.2500    1.0540 N   0  0  0  0  0  0  0  0  0  0  0  0
   -1.6660   14.8210   -3.2440 C   0  0  0  0  0  0  0  0  0  0  0  0
   -1.3510   12.6320    1.8610 N   0  0  0  0  0  0  0  0  0  0  0  0
   -1.8260   14.0430   -4.5150 C   0  0  0  0  0  0  0  0  0  0  0  0
   -3.2150   12.8350   -1.1880 C   0  0  0  0  0  0  0  0  0  0  0  0
   -2.1940   13.1460   -0.3430 C   0  0  0  0  0  0  0  0  0  0  0  0
   -3.0420   14.0960    1.7650 C   0  0  0  0  0  0  0  0  0  0  0  0
   -2.6060   14.0240    3.0310 C   0  0  0  0  0  0  0  0  0  0  0  0
   -1.5680   13.1120    3.0580 C   0  0  0  0  0  0  0  0  0  0  0  0
   -3.2740   15.0370    4.5420 Br  0  0  0  0  0  0  0  0  0  0  0  0
  1  2  2  0
  2  4  1  0
  2  9  1  0
  3  9  1  0
  4  6  1  0
  4  8  1  0
  5  7  1  0
  5 10  1  0
  5 11  1  0
  6  8  1  0
  7 13  2  0
  9 10  2  0
 11 12  2  0
 12 13  1  0
 12 14  1  0
M  CHG  2   2   1   3  -1
M  END
$$$$
