CypD-x0618-pandda-model
     RDKit          3D

 15 15  0  0  1  0  0  0  0  0999 V2000
   -2.0641   18.6379    2.7517 C   0  0  0  0  0  0  0  0  0  0  0  0
   -1.3040   16.2625    2.5518 N   0  0  0  0  0  0  0  0  0  0  0  0
   -1.8989   17.1491    4.5450 O   0  0  0  0  0  0  0  0  0  0  0  0
   -1.7263   10.6042    4.3360 S   0  0  0  0  0  0  0  0  0  0  0  0
   -1.7353   17.2852    3.3509 C   0  0  0  0  0  0  0  0  0  0  0  0
   -1.4058   12.2048    3.9865 N   0  0  0  0  0  0  0  0  0  0  0  0
   -2.3463   10.6265    5.6379 O   0  0  0  0  0  0  0  0  0  0  0  0
   -0.7849   16.4548    1.1715 C   0  0  0  0  0  0  0  0  0  0  0  0
   -0.5081    9.8499    4.1253 O   0  0  0  0  0  0  0  0  0  0  0  0
    0.5237   15.6922    1.0153 C   0  0  0  0  0  0  0  0  0  0  0  0
    0.3183   14.2009    1.2826 C   0  0  0  0  0  0  0  0  0  0  0  0
   -0.2842   13.9602    2.6776 C   0  0  2  0  0  0  0  0  0  0  0  0
   -0.5793   12.4581    2.8197 C   0  0  0  0  0  0  0  0  0  0  0  0
   -2.9027   10.1563    3.0893 C   0  0  0  0  0  0  0  0  0  0  0  0
   -1.5366   14.8326    2.9154 C   0  0  0  0  0  0  0  0  0  0  0  0
  1  5  1  0
  2  5  1  0
  2  8  1  0
  2 15  1  0
  3  5  2  0
  4  6  1  0
  4  7  2  0
  4  9  2  0
  4 14  1  0
  6 13  1  0
  8 10  1  0
 10 11  1  0
 11 12  1  0
 12 13  1  6
 12 15  1  0
M  END
$$$$
