CypD-x0232-pandda-model
     RDKit          3D

 14 14  0  0  0  0  0  0  0  0999 V2000
    0.8551    9.4200   -3.7785 C   0  0  0  0  0  0  0  0  0  0  0  0
   -2.6035   10.7585    5.3319 N   0  0  0  0  0  0  0  0  0  0  0  0
    0.7892   10.1060   -2.5451 O   0  0  0  0  0  0  0  0  0  0  0  0
    1.3843   11.2784   -2.3552 C   0  0  0  0  0  0  0  0  0  0  0  0
    2.0960   11.7903   -3.1871 O   0  0  0  0  0  0  0  0  0  0  0  0
    1.0785   11.9819   -1.0463 C   0  0  0  0  0  0  0  0  0  0  0  0
    1.5734   11.2782    0.0850 O   0  0  0  0  0  0  0  0  0  0  0  0
    0.7430   11.1471    1.1415 C   0  0  0  0  0  0  0  0  0  0  0  0
   -0.4999   10.5444    1.0078 C   0  0  0  0  0  0  0  0  0  0  0  0
   -1.3394   10.4478    2.1034 C   0  0  0  0  0  0  0  0  0  0  0  0
   -0.9552   10.9269    3.3519 C   0  0  0  0  0  0  0  0  0  0  0  0
   -1.8543   10.8302    4.4702 C   0  0  0  0  0  0  0  0  0  0  0  0
    0.3060   11.5047    3.4705 C   0  0  0  0  0  0  0  0  0  0  0  0
    1.1466   11.6225    2.3778 C   0  0  0  0  0  0  0  0  0  0  0  0
  1  3  1  0
  2 12  3  0
  3  4  1  0
  4  5  2  0
  4  6  1  0
  6  7  1  0
  7  8  1  0
  8  9  2  0
  8 14  1  0
  9 10  1  0
 10 11  2  0
 11 12  1  0
 11 13  1  0
 13 14  2  0
M  END
$$$$
