CypD-x0221-pandda-model
     RDKit          3D

 11 11  0  0  0  0  0  0  0  0999 V2000
   -3.4147   13.1574    3.4525 C   0  0  0  0  0  0  0  0  0  0  0  0
   -1.7504   14.2471    1.9496 N   0  0  0  0  0  0  0  0  0  0  0  0
   -3.0073   12.5098    1.2639 O   0  0  0  0  0  0  0  0  0  0  0  0
   -2.7048   13.2920    2.1343 C   0  0  0  0  0  0  0  0  0  0  0  0
   -0.0053   18.3003   -0.4668 N   0  0  0  0  0  0  0  0  0  0  0  0
   -1.0762   14.3557    0.6219 C   0  0  0  0  0  0  0  0  0  0  0  0
    0.2847   15.0329    0.7656 C   0  0  0  0  0  0  0  0  0  0  0  0
    0.1658   16.4369    1.3847 C   0  0  0  0  0  0  0  0  0  0  0  0
   -0.9953   16.5548    2.3953 C   0  0  0  0  0  0  0  0  0  0  0  0
   -1.3566   15.2124    3.0165 C   0  0  0  0  0  0  0  0  0  0  0  0
    0.0419   17.4851    0.3248 C   0  0  0  0  0  0  0  0  0  0  0  0
  1  4  1  0
  2  4  1  0
  2  6  1  0
  2 10  1  0
  3  4  2  0
  5 11  3  0
  6  7  1  0
  7  8  1  0
  8  9  1  0
  8 11  1  0
  9 10  1  0
M  END
$$$$
