CypD-x0133-pandda-model
     RDKit          3D

 15 16  0  0  0  0  0  0  0  0999 V2000
   -4.2790    6.8870    4.9620 C   0  0  0  0  0  0  0  0  0  0  0  0
   -3.0930    9.8550    3.4360 N   0  0  0  0  0  0  0  0  0  0  0  0
   -2.7130   12.0330    0.9700 O   0  0  0  0  0  0  0  0  0  0  0  0
   -4.7160    8.1360    4.1890 C   0  0  0  0  0  0  0  0  0  0  0  0
   -0.9260   11.3110    2.1780 N   0  0  0  0  0  0  0  0  0  0  0  0
   -3.4880    9.7290    5.5740 O   0  0  0  0  0  0  0  0  0  0  0  0
   -3.7330    9.2770    4.3680 C   0  0  0  0  0  0  0  0  0  0  0  0
   -2.6270   10.6850    5.3850 N   0  0  0  0  0  0  0  0  0  0  0  0
   -2.4220   10.7680    4.1280 C   0  0  0  0  0  0  0  0  0  0  0  0
   -1.5250   11.8090    3.4520 C   0  0  0  0  0  0  0  0  0  0  0  0
    0.3110   10.6930    2.1890 C   0  0  0  0  0  0  0  0  0  0  0  0
    0.8610   10.2070    1.0450 C   0  0  0  0  0  0  0  0  0  0  0  0
    0.1710   10.3340   -0.1850 C   0  0  0  0  0  0  0  0  0  0  0  0
   -1.0400   10.9520   -0.2010 C   0  0  0  0  0  0  0  0  0  0  0  0
   -1.6240   11.4650    0.9910 C   0  0  0  0  0  0  0  0  0  0  0  0
  1  4  1  0
  2  7  2  0
  2  9  1  0
  3 15  2  0
  4  7  1  0
  5 10  1  0
  5 11  1  0
  5 15  1  0
  6  7  1  0
  6  8  1  0
  8  9  2  0
  9 10  1  0
 11 12  2  0
 12 13  1  0
 13 14  2  0
 14 15  1  0
M  END
$$$$
