CypD-x0303-pandda-model
     RDKit          3D

 15 16  0  0  1  0  0  0  0  0999 V2000
   -4.0689    7.1874    5.2776 C   0  0  0  0  0  0  0  0  0  0  0  0
   -1.5192   11.9108    3.7013 N   0  0  0  0  0  0  0  0  0  0  0  0
   -1.9233   12.0542    1.4679 O   0  0  0  0  0  0  0  0  0  0  0  0
   -3.3312    8.4501    4.8660 C   0  0  0  0  0  0  0  0  0  0  0  0
   -3.3450   10.5097    3.6278 N   0  0  0  0  0  0  0  0  0  0  0  0
   -0.9973   14.5036    3.8477 O   0  0  0  0  0  0  0  0  0  0  0  0
   -2.0543    8.6902    5.3329 C   0  0  0  0  0  0  0  0  0  0  0  0
   -1.4484    9.8580    4.9268 C   0  0  0  0  0  0  0  0  0  0  0  0
   -2.1192   10.7281    4.0761 C   0  0  0  0  0  0  0  0  0  0  0  0
   -1.6255   12.5877    2.5181 C   0  0  0  0  0  0  0  0  0  0  0  0
   -1.3138   14.0914    2.5376 C   0  0  1  0  0  0  0  0  0  0  0  0
   -2.5031   14.9492    2.1122 C   0  0  0  0  0  0  0  0  0  0  0  0
   -3.1151   15.3718    3.4260 C   0  0  0  0  0  0  0  0  0  0  0  0
   -1.8943   15.4629    4.3114 C   0  0  0  0  0  0  0  0  0  0  0  0
   -3.9157    9.3825    4.0241 C   0  0  0  0  0  0  0  0  0  0  0  0
  1  4  1  0
  2  9  1  0
  2 10  1  0
  3 10  2  0
  4  7  2  0
  4 15  1  0
  5  9  1  0
  5 15  2  0
  6 11  1  0
  6 14  1  0
  7  8  1  0
  8  9  2  0
 11 10  1  1
 11 12  1  0
 12 13  1  0
 13 14  1  0
M  END
$$$$
