CypD-x0395-pandda-model
     RDKit          3D

 14 14  0  0  0  0  0  0  0  0999 V2000
   -3.2715   -2.0784    2.4568 C   0  0  0  0  0  0  0  0  0  0  0  0
   -2.5456   -0.8547    0.4379 N   0  0  0  0  0  0  0  0  0  0  0  0
   -1.5766   -0.4717    2.4506 O   0  0  0  0  0  0  0  0  0  0  0  0
   -2.3965   -1.0543    1.7803 C   0  0  0  0  0  0  0  0  0  0  0  0
   -0.1536    3.5951    1.0194 O   0  0  0  0  0  0  0  0  0  0  0  0
   -1.8057    0.0019   -0.4014 C   0  0  0  0  0  0  0  0  0  0  0  0
    0.1465    4.3540   -0.9412 O   0  0  0  0  0  0  0  0  0  0  0  0
   -1.4204    1.2640    0.0254 C   0  0  0  0  0  0  0  0  0  0  0  0
   -0.6255    2.1181   -0.7424 C   0  0  0  0  0  0  0  0  0  0  0  0
   -0.2563    1.6773   -2.0136 C   0  0  0  0  0  0  0  0  0  0  0  0
   -0.6582    0.4447   -2.4971 C   0  0  0  0  0  0  0  0  0  0  0  0
   -1.4185   -0.3727   -1.6857 C   0  0  0  0  0  0  0  0  0  0  0  0
   -0.1934    3.3998   -0.2116 C   0  0  0  0  0  0  0  0  0  0  0  0
   -1.7673   -1.5510   -2.1428 F   0  0  0  0  0  0  0  0  0  0  0  0
  1  4  1  0
  2  4  1  0
  2  6  1  0
  3  4  2  0
  5 13  1  0
  6  8  2  0
  6 12  1  0
  7 13  2  0
  8  9  1  0
  9 10  2  0
  9 13  1  0
 10 11  1  0
 11 12  2  0
 12 14  1  0
M  CHG  1   5  -1
M  END
$$$$
