CypD-x0554-pandda-model
     RDKit          3D

 14 14  0  0  0  0  0  0  0  0999 V2000
   -2.6190   13.2840   -2.8850 C   0  0  0  0  0  0  0  0  0  0  0  0
   -2.2690   13.4790   -1.4700 N   0  0  0  0  0  0  0  0  0  0  0  0
   -2.4210   11.3350   -0.0870 O   0  0  0  0  0  0  0  0  0  0  0  0
   -3.1740   12.5100   -0.4470 S   0  0  0  0  0  0  0  0  0  0  0  0
   -0.8350   13.2580   -1.2740 C   0  0  0  0  0  0  0  0  0  0  0  0
   -3.1510   13.5330    0.8400 N   0  0  0  0  0  0  0  0  0  0  0  0
   -4.5470   12.4570   -0.8880 O   0  0  0  0  0  0  0  0  0  0  0  0
   -0.0340   14.4370   -1.8040 C   0  0  0  0  0  0  0  0  0  0  0  0
    0.8460   14.2820   -2.8690 C   0  0  0  0  0  0  0  0  0  0  0  0
    1.5970   15.3520   -3.3330 C   0  0  0  0  0  0  0  0  0  0  0  0
    1.4780   16.5940   -2.7310 C   0  0  0  0  0  0  0  0  0  0  0  0
    0.5980   16.7330   -1.6760 C   0  0  0  0  0  0  0  0  0  0  0  0
   -0.1650   15.6830   -1.2060 C   0  0  0  0  0  0  0  0  0  0  0  0
    0.4800   17.9010   -1.1030 F   0  0  0  0  0  0  0  0  0  0  0  0
  1  2  1  0
  2  4  1  0
  2  5  1  0
  3  4  2  0
  4  6  1  0
  4  7  2  0
  5  8  1  0
  8  9  2  0
  8 13  1  0
  9 10  1  0
 10 11  2  0
 11 12  1  0
 12 13  2  0
 12 14  1  0
M  END
$$$$
