CypD-x0120-pandda-model
     RDKit          3D

 11 11  0  0  0  0  0  0  0  0999 V2000
   -4.5721    8.7920    3.4667 C   0  0  0  0  0  0  0  0  0  0  0  0
   -3.4292    7.8550    3.6598 N   0  0  0  0  0  0  0  0  0  0  0  0
   -1.8711    9.1557    2.6713 O   0  0  0  0  0  0  0  0  0  0  0  0
   -3.8033    6.6359    4.4175 C   0  0  0  0  0  0  0  0  0  0  0  0
    0.1915    5.5699    3.7060 O   0  0  0  0  0  0  0  0  0  0  0  0
   -2.1324    8.2710    3.4571 C   0  0  0  0  0  0  0  0  0  0  0  0
   -0.3993    6.6993    1.9977 O   0  0  0  0  0  0  0  0  0  0  0  0
   -0.9769    7.5960    4.1592 C   0  0  0  0  0  0  0  0  0  0  0  0
   -0.0705    8.4538    5.0144 C   0  0  0  0  0  0  0  0  0  0  0  0
   -0.9532    7.4403    5.6646 C   0  0  0  0  0  0  0  0  0  0  0  0
   -0.3909    6.5548    3.2292 C   0  0  0  0  0  0  0  0  0  0  0  0
  1  2  1  0
  2  4  1  0
  2  6  1  0
  3  6  2  0
  5 11  1  0
  6  8  1  0
  7 11  2  0
  8  9  1  0
  8 10  1  0
  8 11  1  0
  9 10  1  0
M  CHG  1   5  -1
M  END
$$$$
