CypD-x0641-pandda-model
     RDKit          3D

 13 13  0  0  0  0  0  0  0  0999 V2000
    0.5370    8.8060    2.3840 C   0  0  0  0  0  0  0  0  0  0  0  0
   -0.4710   10.0630   -0.8450 N   0  0  0  0  0  0  0  0  0  0  0  0
   -3.0180   12.2950    2.6980 O   0  0  0  0  0  0  0  0  0  0  0  0
    0.9320    9.4900    1.0620 C   0  0  0  0  0  0  0  0  0  0  0  0
   -0.8750   11.1170    1.2340 N   0  0  0  0  0  0  0  0  0  0  0  0
    2.1630   10.3830    1.2820 C   0  0  0  0  0  0  0  0  0  0  0  0
   -3.0970   13.9330    1.2660 N   0  0  0  0  0  0  0  0  0  0  0  0
   -0.2260   10.2850    0.4400 C   0  0  0  0  0  0  0  0  0  0  0  0
   -1.4470   10.7750   -1.3680 C   0  0  0  0  0  0  0  0  0  0  0  0
   -2.1870   11.6600   -0.6260 C   0  0  0  0  0  0  0  0  0  0  0  0
   -1.8890   11.8190    0.7180 C   0  0  0  0  0  0  0  0  0  0  0  0
   -2.6740   12.6850    1.5950 C   0  0  0  0  0  0  0  0  0  0  0  0
   -3.4940   12.5040   -1.4160 Cl  0  0  0  0  0  0  0  0  0  0  0  0
  1  4  1  0
  2  8  2  0
  2  9  1  0
  3 12  2  0
  4  6  1  0
  4  8  1  0
  5  8  1  0
  5 11  2  0
  7 12  1  0
  9 10  2  0
 10 11  1  0
 10 13  1  0
 11 12  1  0
M  END
$$$$
