CypD-x0180-pandda-model
     RDKit          3D

 15 16  0  0  0  0  0  0  0  0999 V2000
   -1.8880   13.7920   -0.7150 C   0  0  0  0  0  0  0  0  0  0  0  0
   -1.8230   11.7560    0.7010 N   0  0  0  0  0  0  0  0  0  0  0  0
   -2.7280   10.2560    5.6090 O   0  0  0  0  0  0  0  0  0  0  0  0
   -2.6280   12.9410    0.3150 C   0  0  0  0  0  0  0  0  0  0  0  0
   -0.4780   10.0500    0.5440 N   0  0  0  0  0  0  0  0  0  0  0  0
   -1.1010   10.9730   -0.1050 C   0  0  0  0  0  0  0  0  0  0  0  0
   -0.7860   10.2110    1.8270 N   0  0  0  0  0  0  0  0  0  0  0  0
   -1.5960   11.2130    1.9050 C   0  0  0  0  0  0  0  0  0  0  0  0
   -3.3490   10.7940    3.5450 N   0  0  0  0  0  0  0  0  0  0  0  0
   -2.2140   11.6800    3.2120 C   0  0  0  0  0  0  0  0  0  0  0  0
   -3.7710    8.6770    4.3980 N   0  0  0  0  0  0  0  0  0  0  0  0
   -3.2840    9.9300    4.5740 C   0  0  0  0  0  0  0  0  0  0  0  0
   -3.7840    7.6230    5.4700 C   0  0  0  0  0  0  0  0  0  0  0  0
   -4.9420    6.9680    4.7050 C   0  0  0  0  0  0  0  0  0  0  0  0
   -5.2120    8.3680    4.1270 C   0  0  0  0  0  0  0  0  0  0  0  0
  1  4  1  0
  2  4  1  0
  2  6  1  0
  2  8  1  0
  3 12  2  0
  5  6  2  0
  5  7  1  0
  7  8  2  0
  8 10  1  0
  9 10  1  0
  9 12  1  0
 11 12  1  0
 11 13  1  0
 11 15  1  0
 13 14  1  0
 14 15  1  0
M  END
$$$$
