CypD-x0365-pandda-model
     RDKit          3D

 15 16  0  0  1  0  0  0  0  0999 V2000
   -3.0651   13.7175    3.8366 C   0  0  0  0  0  0  0  0  0  0  0  0
   -3.0729   14.9399    2.9788 N   0  0  0  0  0  0  0  0  0  0  0  0
   -2.9049   13.2321    0.7429 O   0  0  0  0  0  0  0  0  0  0  0  0
   -1.9393   14.9969    1.9945 C   0  0  1  0  0  0  0  0  0  0  0  0
   -0.6432   13.3359    0.5635 N   0  0  0  0  0  0  0  0  0  0  0  0
   -0.6210   15.2493    2.7376 C   0  0  0  0  0  0  0  0  0  0  0  0
    0.5461   15.2124    1.7477 C   0  0  0  0  0  0  0  0  0  0  0  0
    0.6637   13.8389    1.0766 C   0  0  0  0  0  0  0  0  0  0  0  0
   -1.8604   13.7747    1.0443 C   0  0  0  0  0  0  0  0  0  0  0  0
   -0.5474   12.2935   -0.3654 C   0  0  0  0  0  0  0  0  0  0  0  0
   -0.4633   10.9757    0.0604 C   0  0  0  0  0  0  0  0  0  0  0  0
   -0.3461    9.9531   -0.8618 C   0  0  0  0  0  0  0  0  0  0  0  0
   -0.3192   10.2305   -2.2177 C   0  0  0  0  0  0  0  0  0  0  0  0
   -0.4154   11.5410   -2.6503 C   0  0  0  0  0  0  0  0  0  0  0  0
   -0.5289   12.5653   -1.7271 C   0  0  0  0  0  0  0  0  0  0  0  0
  1  2  1  0
  4  2  1  1
  3  9  2  0
  4  6  1  0
  4  9  1  0
  5  8  1  0
  5  9  1  0
  5 10  1  0
  6  7  1  0
  7  8  1  0
 10 11  2  0
 10 15  1  0
 11 12  1  0
 12 13  2  0
 13 14  1  0
 14 15  2  0
M  CHG  1   2   1
M  END
$$$$
