CypD-x0403-pandda-model
     RDKit          3D

 15 15  0  0  1  0  0  0  0  0999 V2000
   -1.3870   14.0530   -3.2580 C   0  0  0  0  0  0  0  0  0  0  0  0
   -1.4030   14.1970    0.6040 N   0  0  0  0  0  0  0  0  0  0  0  0
   -2.4100   12.8730   -0.9240 O   0  0  0  0  0  0  0  0  0  0  0  0
   -2.0980   10.9400    4.0100 S   0  0  0  0  0  0  0  0  0  0  0  0
   -0.9950   14.5300   -1.8500 C   0  0  0  0  0  0  0  0  0  0  0  0
   -1.5820   12.5310    3.9940 N   0  0  0  0  0  0  0  0  0  0  0  0
   -2.6110   10.7420    5.3460 O   0  0  0  0  0  0  0  0  0  0  0  0
   -1.6660   13.8020   -0.6840 C   0  0  0  0  0  0  0  0  0  0  0  0
   -2.9400   10.7680    2.8470 O   0  0  0  0  0  0  0  0  0  0  0  0
   -0.5460   15.3560    0.9890 C   0  0  0  0  0  0  0  0  0  0  0  0
    0.5500   14.8790    1.9460 C   0  0  0  0  0  0  0  0  0  0  0  0
   -0.0410   14.1730    3.1760 C   0  0  0  0  0  0  0  0  0  0  0  0
   -0.9850   13.0330    2.7690 C   0  0  2  0  0  0  0  0  0  0  0  0
   -2.0550   13.5470    1.7830 C   0  0  0  0  0  0  0  0  0  0  0  0
   -0.6110    9.9770    3.8230 C   0  0  0  0  0  0  0  0  0  0  0  0
  1  5  1  0
  2  8  1  0
  2 10  1  0
  2 14  1  0
  3  8  2  0
  4  6  1  0
  4  7  2  0
  4  9  2  0
  4 15  1  0
  5  8  1  0
 13  6  1  1
 10 11  1  0
 11 12  1  0
 12 13  1  0
 13 14  1  0
M  END
$$$$
