CypD-x0620-pandda-model
     RDKit          3D

 13 13  0  0  0  0  0  0  0  0999 V2000
   -2.6920    9.9130    5.4860 C   0  0  0  0  0  0  0  0  0  0  0  0
   -1.8680   12.0590    4.1050 N   0  0  0  0  0  0  0  0  0  0  0  0
   -1.7450    9.7460    3.0600 O   0  0  0  0  0  0  0  0  0  0  0  0
   -1.4750   10.4400    4.3030 S   0  0  0  0  0  0  0  0  0  0  0  0
   -1.2560   12.7010    2.9470 C   0  0  0  0  0  0  0  0  0  0  0  0
   -0.1540   10.3700    4.8890 O   0  0  0  0  0  0  0  0  0  0  0  0
   -2.0430   13.9530    2.5270 C   0  0  0  0  0  0  0  0  0  0  0  0
   -2.1700   15.0110    3.6160 C   0  0  0  0  0  0  0  0  0  0  0  0
   -1.1170   15.8690    3.8870 C   0  0  0  0  0  0  0  0  0  0  0  0
   -1.2350   16.8400    4.8680 C   0  0  0  0  0  0  0  0  0  0  0  0
   -2.4100   16.9620    5.5850 C   0  0  0  0  0  0  0  0  0  0  0  0
   -3.4700   16.1190    5.3080 C   0  0  0  0  0  0  0  0  0  0  0  0
   -3.3520   15.1510    4.3260 C   0  0  0  0  0  0  0  0  0  0  0  0
  1  4  1  0
  2  4  1  0
  2  5  1  0
  3  4  2  0
  4  6  2  0
  5  7  1  0
  7  8  1  0
  8  9  2  0
  8 13  1  0
  9 10  1  0
 10 11  2  0
 11 12  1  0
 12 13  2  0
M  END
$$$$
