CypD-x0620-pandda-model
     RDKit          3D

 13 13  0  0  0  0  0  0  0  0999 V2000
   -1.8637   11.1179    3.4321 C   0  0  0  0  0  0  0  0  0  0  0  0
   -1.4984   13.7906    3.4694 N   0  0  0  0  0  0  0  0  0  0  0  0
   -2.4974   12.6690    1.4264 O   0  0  0  0  0  0  0  0  0  0  0  0
   -1.4421   12.5000    2.4052 S   0  0  0  0  0  0  0  0  0  0  0  0
   -1.1642   15.0634    2.8341 C   0  0  0  0  0  0  0  0  0  0  0  0
   -0.0678   12.3792    1.9768 O   0  0  0  0  0  0  0  0  0  0  0  0
   -2.4201   15.8660    2.4783 C   0  0  0  0  0  0  0  0  0  0  0  0
   -2.8275   16.8270    3.5904 C   0  0  0  0  0  0  0  0  0  0  0  0
   -2.8602   18.1946    3.3499 C   0  0  0  0  0  0  0  0  0  0  0  0
   -3.1998   19.0772    4.3601 C   0  0  0  0  0  0  0  0  0  0  0  0
   -3.5008   18.5996    5.6227 C   0  0  0  0  0  0  0  0  0  0  0  0
   -3.4838   17.2380    5.8636 C   0  0  0  0  0  0  0  0  0  0  0  0
   -3.1583   16.3535    4.8498 C   0  0  0  0  0  0  0  0  0  0  0  0
  1  4  1  0
  2  4  1  0
  2  5  1  0
  3  4  2  0
  4  6  2  0
  5  7  1  0
  7  8  1  0
  8  9  2  0
  8 13  1  0
  9 10  1  0
 10 11  2  0
 11 12  1  0
 12 13  2  0
M  END
$$$$
