CypD-x0291-pandda-model
     RDKit          3D

 15 16  0  0  0  0  0  0  0  0999 V2000
   -1.8360    0.0350   -1.7590 C   0  0  0  0  0  0  0  0  0  0  0  0
    0.1200    2.1880   -1.4930 N   0  0  0  0  0  0  0  0  0  0  0  0
   -0.7950    5.5510    1.3310 O   0  0  0  0  0  0  0  0  0  0  0  0
   -0.3910   -0.1060   -2.2180 C   0  0  0  0  0  0  0  0  0  0  0  0
   -0.5890    4.1880   -1.1840 N   0  0  0  0  0  0  0  0  0  0  0  0
   -0.0580    3.8550    2.3740 O   0  0  0  0  0  0  0  0  0  0  0  0
    0.0500   -1.3180   -2.7230 C   0  0  0  0  0  0  0  0  0  0  0  0
   -0.3760    3.2940   -2.0840 N   0  0  0  0  0  0  0  0  0  0  0  0
    1.3490   -1.4590   -3.1800 C   0  0  0  0  0  0  0  0  0  0  0  0
    2.2130   -0.3800   -3.1420 C   0  0  0  0  0  0  0  0  0  0  0  0
    1.7860    0.8270   -2.6200 C   0  0  0  0  0  0  0  0  0  0  0  0
    0.4920    0.9730   -2.1320 C   0  0  0  0  0  0  0  0  0  0  0  0
    0.2140    2.4240   -0.1860 C   0  0  0  0  0  0  0  0  0  0  0  0
   -0.2300    3.6810    0.0230 C   0  0  0  0  0  0  0  0  0  0  0  0
   -0.3410    4.3940    1.2870 C   0  0  0  0  0  0  0  0  0  0  0  0
  1  4  1  0
  2  8  1  0
  2 12  1  0
  2 13  1  0
  3 15  1  0
  4  7  2  0
  4 12  1  0
  5  8  2  0
  5 14  1  0
  6 15  2  0
  7  9  1  0
  9 10  2  0
 10 11  1  0
 11 12  2  0
 13 14  2  0
 14 15  1  0
M  CHG  1   3  -1
M  END
$$$$
