CypD-x0644-pandda-model
     RDKit          3D

 13 14  0  0  1  0  0  0  0  0999 V2000
   -2.4971   14.5383    2.7699 C   0  0  0  0  0  0  0  0  0  0  0  0
   -1.2056   13.8960    3.1175 N   0  0  0  0  0  0  0  0  0  0  0  0
   -0.0065   14.7541    2.9684 C   0  0  1  0  0  0  0  0  0  0  0  0
    0.9588   13.8741    0.9679 N   0  0  0  0  0  0  0  0  0  0  0  0
    1.2255   13.9518    3.3530 C   0  0  0  0  0  0  0  0  0  0  0  0
    1.7864   13.3618    2.0637 C   0  0  0  0  0  0  0  0  0  0  0  0
    0.2988   15.0693    1.5025 C   0  0  0  0  0  0  0  0  0  0  0  0
   -2.6793   15.8277    3.5524 C   0  0  0  0  0  0  0  0  0  0  0  0
   -2.3548   17.0582    2.9961 C   0  0  0  0  0  0  0  0  0  0  0  0
   -2.5089   18.2205    3.7311 C   0  0  0  0  0  0  0  0  0  0  0  0
   -2.9894   18.1627    5.0271 C   0  0  0  0  0  0  0  0  0  0  0  0
   -3.3335   16.9444    5.5798 C   0  0  0  0  0  0  0  0  0  0  0  0
   -3.1856   15.7841    4.8410 C   0  0  0  0  0  0  0  0  0  0  0  0
  1  2  1  0
  1  8  1  0
  3  2  1  6
  3  5  1  0
  3  7  1  0
  4  6  1  0
  4  7  1  0
  5  6  1  0
  8  9  2  0
  8 13  1  0
  9 10  1  0
 10 11  2  0
 11 12  1  0
 12 13  2  0
M  CHG  1   2   1
M  END
$$$$
