CypD-x0364-pandda-model
     RDKit          3D

 14 15  0  0  1  0  0  0  0  0999 V2000
   -3.9160    6.2090    5.1840 C   0  0  0  0  0  0  0  0  0  0  0  0
   -2.7480    7.1320    3.2280 N   0  0  0  0  0  0  0  0  0  0  0  0
   -2.1880   10.2170    3.4650 O   0  0  0  0  0  0  0  0  0  0  0  0
   -2.8420   10.0260    4.7430 S   0  0  0  0  0  0  0  0  0  0  0  0
   -3.4940    7.4810    4.4530 C   0  0  1  0  0  0  0  0  0  0  0  0
   -2.6880   10.9780    5.8220 O   0  0  0  0  0  0  0  0  0  0  0  0
   -4.7510    8.2840    4.0350 C   0  0  0  0  0  0  0  0  0  0  0  0
   -1.1110    5.8020    4.0390 O   0  0  0  0  0  0  0  0  0  0  0  0
   -4.5700    9.7510    4.4490 C   0  0  0  0  0  0  0  0  0  0  0  0
   -2.6110    8.3720    5.3320 C   0  0  0  0  0  0  0  0  0  0  0  0
   -1.6330    6.3650    3.1040 C   0  0  0  0  0  0  0  0  0  0  0  0
   -1.0200    6.2320    1.7130 C   0  0  0  0  0  0  0  0  0  0  0  0
   -0.3730    4.9560    1.2530 C   0  0  0  0  0  0  0  0  0  0  0  0
    0.4680    6.1640    1.5260 C   0  0  0  0  0  0  0  0  0  0  0  0
  5  1  1  1
  2  5  1  0
  2 11  1  0
  3  4  2  0
  4  6  2  0
  4  9  1  0
  4 10  1  0
  5  7  1  0
  5 10  1  0
  7  9  1  0
  8 11  2  0
 11 12  1  0
 12 13  1  0
 12 14  1  0
 13 14  1  0
M  END
$$$$
