CypD-x0707-pandda-model
     RDKit          3D

 11 11  0  0  0  0  0  0  0  0999 V2000
   -5.1425    9.0236    4.0805 C   0  0  0  0  0  0  0  0  0  0  0  0
   -4.0228    8.1011    4.4002 N   0  0  0  0  0  0  0  0  0  0  0  0
   -2.4398    9.4179    3.4744 O   0  0  0  0  0  0  0  0  0  0  0  0
   -4.4541    6.8419    5.0651 C   0  0  0  0  0  0  0  0  0  0  0  0
   -2.0077    6.3812    2.3894 O   0  0  0  0  0  0  0  0  0  0  0  0
   -2.7220    8.4007    4.0697 C   0  0  0  0  0  0  0  0  0  0  0  0
   -0.4535    5.5753    3.5953 O   0  0  0  0  0  0  0  0  0  0  0  0
   -1.5825    7.4940    4.4854 C   0  0  0  0  0  0  0  0  0  0  0  0
   -0.4328    8.1247    5.2394 C   0  0  0  0  0  0  0  0  0  0  0  0
   -1.3455    7.1710    5.9381 C   0  0  0  0  0  0  0  0  0  0  0  0
   -1.3426    6.4304    3.4302 C   0  0  0  0  0  0  0  0  0  0  0  0
  1  2  1  0
  2  4  1  0
  2  6  1  0
  3  6  2  0
  5 11  1  0
  6  8  1  0
  7 11  2  0
  8  9  1  0
  8 10  1  0
  8 11  1  0
  9 10  1  0
M  CHG  1   5  -1
M  END
$$$$
