CypD-x0974-pandda-model
     RDKit          3D

 14 15  0  0  1  0  0  0  0  0999 V2000
   -2.3600   10.8940    3.3000 C   0  0  0  0  0  0  0  0  0  0  0  0
   -3.1500    8.9220    4.6070 N   0  0  0  0  0  0  0  0  0  0  0  0
   -2.5710   10.8360    5.6230 O   0  0  0  0  0  0  0  0  0  0  0  0
   -2.7040   10.2080    4.6000 C   0  0  0  0  0  0  0  0  0  0  0  0
   -3.5940    8.2420    5.8480 C   0  0  0  0  0  0  0  0  0  0  0  0
   -4.2100    6.9310    5.3800 C   0  0  0  0  0  0  0  0  0  0  0  0
   -4.6130    7.1960    3.9350 C   0  0  0  0  0  0  0  0  0  0  0  0
   -3.5390    8.1380    3.4080 C   0  0  2  0  0  0  0  0  0  0  0  0
   -2.3700    7.3200    2.8350 C   0  0  0  0  0  0  0  0  0  0  0  0
   -2.5070    6.7770    1.5650 C   0  0  0  0  0  0  0  0  0  0  0  0
   -1.5060    5.9940    1.0140 C   0  0  0  0  0  0  0  0  0  0  0  0
   -0.3460    5.7500    1.7270 C   0  0  0  0  0  0  0  0  0  0  0  0
   -0.1900    6.2950    2.9890 C   0  0  0  0  0  0  0  0  0  0  0  0
   -1.1960    7.0700    3.5390 C   0  0  0  0  0  0  0  0  0  0  0  0
  1  4  1  0
  2  4  1  0
  2  5  1  0
  2  8  1  0
  3  4  2  0
  5  6  1  0
  6  7  1  0
  7  8  1  0
  8  9  1  1
  9 10  2  0
  9 14  1  0
 10 11  1  0
 11 12  2  0
 12 13  1  0
 13 14  2  0
M  END
$$$$
