CypD-x0875-pandda-model
     RDKit          3D

 11 11  0  0  0  0  0  0  0  0999 V2000
    0.9714    0.2337    2.4111 C   0  0  0  0  0  0  0  0  0  0  0  0
   -0.0291    2.0362    1.0032 N   0  0  0  0  0  0  0  0  0  0  0  0
    0.1335    6.2075   -0.5917 O   0  0  0  0  0  0  0  0  0  0  0  0
   -0.0622    0.5833    1.3287 C   0  0  0  0  0  0  0  0  0  0  0  0
   -0.0428    4.1419    1.3259 N   0  0  0  0  0  0  0  0  0  0  0  0
    0.0784    4.8348   -2.2046 O   0  0  0  0  0  0  0  0  0  0  0  0
   -1.4713    0.1663    1.7731 C   0  0  0  0  0  0  0  0  0  0  0  0
   -0.0859    3.0081    1.9224 N   0  0  0  0  0  0  0  0  0  0  0  0
    0.0493    2.5886   -0.2040 C   0  0  0  0  0  0  0  0  0  0  0  0
    0.0389    3.9279   -0.0075 C   0  0  0  0  0  0  0  0  0  0  0  0
    0.0917    5.0131   -0.9728 C   0  0  0  0  0  0  0  0  0  0  0  0
  1  4  1  0
  2  4  1  0
  2  8  1  0
  2  9  1  0
  3 11  1  0
  4  7  1  0
  5  8  2  0
  5 10  1  0
  6 11  2  0
  9 10  2  0
 10 11  1  0
M  CHG  1   3  -1
M  END
$$$$
