CypD-x0221-pandda-model
     RDKit          3D

 11 11  0  0  0  0  0  0  0  0999 V2000
    1.6702   11.7119   -0.6236 C   0  0  0  0  0  0  0  0  0  0  0  0
    0.4253   10.3839    1.1073 N   0  0  0  0  0  0  0  0  0  0  0  0
    0.2532    9.9391   -1.1044 O   0  0  0  0  0  0  0  0  0  0  0  0
    0.7092   10.6224   -0.2167 C   0  0  0  0  0  0  0  0  0  0  0  0
   -2.5906   10.7048    5.5717 N   0  0  0  0  0  0  0  0  0  0  0  0
   -0.4310    9.2231    1.4648 C   0  0  0  0  0  0  0  0  0  0  0  0
   -1.4361    9.5911    2.5456 C   0  0  0  0  0  0  0  0  0  0  0  0
   -0.7388   10.1653    3.7789 C   0  0  0  0  0  0  0  0  0  0  0  0
    0.1168   11.3792    3.3849 C   0  0  0  0  0  0  0  0  0  0  0  0
    1.0984   11.0604    2.2549 C   0  0  0  0  0  0  0  0  0  0  0  0
   -1.7653   10.4982    4.8133 C   0  0  0  0  0  0  0  0  0  0  0  0
  1  4  1  0
  2  4  1  0
  2  6  1  0
  2 10  1  0
  3  4  2  0
  5 11  3  0
  6  7  1  0
  7  8  1  0
  8  9  1  0
  8 11  1  0
  9 10  1  0
M  END
$$$$
