CypD-x0036-pandda-model
     RDKit          3D

 13 13  0  0  0  0  0  0  0  0999 V2000
   -3.5111   -1.3689   -1.2183 C   0  0  0  0  0  0  0  0  0  0  0  0
   -2.5177   -0.3414   -0.8097 N   0  0  0  0  0  0  0  0  0  0  0  0
   -1.7001   -1.4406    0.9384 O   0  0  0  0  0  0  0  0  0  0  0  0
   -1.7153   -0.3970    0.2983 C   0  0  0  0  0  0  0  0  0  0  0  0
   -1.0685    1.9440    0.0796 N   0  0  0  0  0  0  0  0  0  0  0  0
   -0.2452    5.3735    0.6256 O   0  0  0  0  0  0  0  0  0  0  0  0
   -0.9127    0.7616    0.7054 C   0  0  0  0  0  0  0  0  0  0  0  0
   -0.8030    4.5979   -1.2425 O   0  0  0  0  0  0  0  0  0  0  0  0
   -0.0035    0.5999    1.7490 C   0  0  0  0  0  0  0  0  0  0  0  0
    0.7366    1.6576    2.2074 C   0  0  0  0  0  0  0  0  0  0  0  0
    0.5269    2.8651    1.5956 C   0  0  0  0  0  0  0  0  0  0  0  0
   -0.3605    3.0018    0.5262 C   0  0  0  0  0  0  0  0  0  0  0  0
   -0.4842    4.3496   -0.0584 C   0  0  0  0  0  0  0  0  0  0  0  0
  1  2  1  0
  2  4  1  0
  3  4  2  0
  4  7  1  0
  5  7  2  0
  5 12  1  0
  6 13  1  0
  7  9  1  0
  8 13  2  0
  9 10  2  0
 10 11  1  0
 11 12  2  0
 12 13  1  0
M  CHG  1   6  -1
M  END
$$$$
