CypD-x0392-pandda-model
     RDKit          3D

 17 18  0  0  0  0  0  0  0  0999 V2000
    5.2403    7.6741   -4.5842 C   0  0  0  0  0  0  0  0  0  0  0  0
    3.7746    7.4915   -4.5599 N   0  0  0  0  0  0  0  0  0  0  0  0
   -0.5377    4.9937   -4.8712 O   0  0  0  0  0  0  0  0  0  0  0  0
    3.3117    6.4294   -5.5022 C   0  0  0  0  0  0  0  0  0  0  0  0
    1.1358    6.3051   -4.1783 N   0  0  0  0  0  0  0  0  0  0  0  0
    1.7729    6.3301   -5.5419 C   0  0  0  0  0  0  0  0  0  0  0  0
    1.7208    7.2672   -3.1851 C   0  0  0  0  0  0  0  0  0  0  0  0
    3.2590    7.2578   -3.1863 C   0  0  0  0  0  0  0  0  0  0  0  0
   -0.0699    5.6716   -3.9764 C   0  0  0  0  0  0  0  0  0  0  0  0
   -0.8032    5.8001   -2.7350 C   0  0  0  0  0  0  0  0  0  0  0  0
   -1.3648    7.0245   -2.3531 C   0  0  0  0  0  0  0  0  0  0  0  0
   -2.0849    7.1667   -1.1784 C   0  0  0  0  0  0  0  0  0  0  0  0
   -2.2405    6.0613   -0.3645 C   0  0  0  0  0  0  0  0  0  0  0  0
   -1.6779    4.8461   -0.7163 C   0  0  0  0  0  0  0  0  0  0  0  0
   -0.9697    4.7019   -1.8906 C   0  0  0  0  0  0  0  0  0  0  0  0
   -2.9389    6.1819    0.7323 F   0  0  0  0  0  0  0  0  0  0  0  0
   -1.8196    3.8078    0.0638 F   0  0  0  0  0  0  0  0  0  0  0  0
  1  2  1  0
  2  4  1  0
  2  8  1  0
  3  9  2  0
  4  6  1  0
  5  6  1  0
  5  7  1  0
  5  9  1  0
  7  8  1  0
  9 10  1  0
 10 11  2  0
 10 15  1  0
 11 12  1  0
 12 13  2  0
 13 14  1  0
 13 16  1  0
 14 15  2  0
 14 17  1  0
M  CHG  1   2   1
M  END
$$$$
