CypD-x0442-pandda-model
     RDKit          3D

 12 12  0  0  0  0  0  0  0  0999 V2000
   -0.6938   10.0689   -1.8321 C   0  0  0  0  0  0  0  0  0  0  0  0
    0.0941   10.0048    0.4795 N   0  0  0  0  0  0  0  0  0  0  0  0
    1.6191   11.2426    1.5406 O   0  0  0  0  0  0  0  0  0  0  0  0
    0.2757   10.6670   -0.8226 C   0  0  0  0  0  0  0  0  0  0  0  0
    0.4877    9.8520    2.8029 N   0  0  0  0  0  0  0  0  0  0  0  0
   -1.5176    7.0862    3.2233 O   0  0  0  0  0  0  0  0  0  0  0  0
    0.7541   10.3945    1.5951 C   0  0  0  0  0  0  0  0  0  0  0  0
   -0.9009    7.9252    2.4223 N   0  0  0  0  0  0  0  0  0  0  0  0
   -0.2931    8.7661    3.1956 C   0  0  0  0  0  0  0  0  0  0  0  0
   -0.5049    8.4475    4.5329 C   0  0  0  0  0  0  0  0  0  0  0  0
   -1.3003    7.3750    4.4817 C   0  0  0  0  0  0  0  0  0  0  0  0
   -1.9049    6.5609    5.6044 C   0  0  0  0  0  0  0  0  0  0  0  0
  1  4  1  0
  2  4  1  0
  2  7  1  0
  3  7  2  0
  5  7  1  0
  5  9  1  0
  6  8  1  0
  6 11  1  0
  8  9  2  0
  9 10  1  0
 10 11  2  0
 11 12  1  0
M  END
$$$$
