CypD-x0425-pandda-model
     RDKit          3D

 15 16  0  0  0  0  0  0  0  0999 V2000
   -0.3560   10.5911    1.7869 C   0  0  0  0  0  0  0  0  0  0  0  0
   -1.1856   11.2605    2.8222 N   0  0  0  0  0  0  0  0  0  0  0  0
   -2.4562    7.2985    3.8562 O   0  0  0  0  0  0  0  0  0  0  0  0
   -1.2232   10.6264    4.1618 C   0  0  0  0  0  0  0  0  0  0  0  0
   -1.5301    8.1895    3.6429 N   0  0  0  0  0  0  0  0  0  0  0  0
   -2.6524   12.1973    1.4253 O   0  0  0  0  0  0  0  0  0  0  0  0
   -1.9770    9.2982    4.1336 C   0  0  0  0  0  0  0  0  0  0  0  0
   -2.2481   13.2827    3.3517 N   0  0  0  0  0  0  0  0  0  0  0  0
   -3.2505    9.1140    4.6676 C   0  0  0  0  0  0  0  0  0  0  0  0
   -3.4896    7.8112    4.4657 C   0  0  0  0  0  0  0  0  0  0  0  0
   -4.6770    6.9433    4.8141 C   0  0  0  0  0  0  0  0  0  0  0  0
   -2.0586   12.2511    2.4894 C   0  0  0  0  0  0  0  0  0  0  0  0
   -2.9237   14.5472    3.0265 C   0  0  0  0  0  0  0  0  0  0  0  0
   -2.1519   15.8068    3.2482 C   0  0  0  0  0  0  0  0  0  0  0  0
   -3.2980   15.4597    4.1474 C   0  0  0  0  0  0  0  0  0  0  0  0
  1  2  1  0
  2  4  1  0
  2 12  1  0
  3  5  1  0
  3 10  1  0
  4  7  1  0
  5  7  2  0
  6 12  2  0
  7  9  1  0
  8 12  1  0
  8 13  1  0
  9 10  2  0
 10 11  1  0
 13 14  1  0
 13 15  1  0
 14 15  1  0
M  END
$$$$
