CypD-x0133-pandda-model
     RDKit          3D

 15 16  0  0  0  0  0  0  0  0999 V2000
   -3.5512    6.4538    4.4826 C   0  0  0  0  0  0  0  0  0  0  0  0
   -2.3300    9.1514    4.0549 N   0  0  0  0  0  0  0  0  0  0  0  0
   -2.8431   11.7482    1.7613 O   0  0  0  0  0  0  0  0  0  0  0  0
   -4.2410    7.7504    4.9203 C   0  0  0  0  0  0  0  0  0  0  0  0
   -0.7430   10.9911    2.2058 N   0  0  0  0  0  0  0  0  0  0  0  0
   -3.7631   10.0562    5.4350 O   0  0  0  0  0  0  0  0  0  0  0  0
   -3.3829    8.9983    4.7663 C   0  0  0  0  0  0  0  0  0  0  0  0
   -2.8910   10.9633    5.1250 N   0  0  0  0  0  0  0  0  0  0  0  0
   -2.0695   10.4374    4.3062 C   0  0  0  0  0  0  0  0  0  0  0  0
   -0.9084   11.2122    3.6784 C   0  0  0  0  0  0  0  0  0  0  0  0
    0.4813   10.5840    1.7018 C   0  0  0  0  0  0  0  0  0  0  0  0
    0.6867   10.4585    0.3635 C   0  0  0  0  0  0  0  0  0  0  0  0
   -0.3571   10.7464   -0.5475 C   0  0  0  0  0  0  0  0  0  0  0  0
   -1.5516   11.1741   -0.0598 C   0  0  0  0  0  0  0  0  0  0  0  0
   -1.7708   11.3252    1.3375 C   0  0  0  0  0  0  0  0  0  0  0  0
  1  4  1  0
  2  7  2  0
  2  9  1  0
  3 15  2  0
  4  7  1  0
  5 10  1  0
  5 11  1  0
  5 15  1  0
  6  7  1  0
  6  8  1  0
  8  9  2  0
  9 10  1  0
 11 12  2  0
 12 13  1  0
 13 14  2  0
 14 15  1  0
M  END
$$$$
