CypD-x0574-pandda-model
     RDKit          3D

 12 12  0  0  0  0  0  0  0  0999 V2000
   -3.1940    8.0030    5.7740 C   0  0  0  0  0  0  0  0  0  0  0  0
   -4.0520    8.9090    5.0170 N   0  0  0  0  0  0  0  0  0  0  0  0
   -4.2800   11.1010    3.7500 O   0  0  0  0  0  0  0  0  0  0  0  0
   -3.3470   10.3850    4.5870 S   0  0  0  0  0  0  0  0  0  0  0  0
   -4.7950    8.2210    3.9620 C   0  0  0  0  0  0  0  0  0  0  0  0
   -2.0060    9.8840    3.6810 N   0  0  0  0  0  0  0  0  0  0  0  0
   -2.8600   10.9980    5.8060 O   0  0  0  0  0  0  0  0  0  0  0  0
   -2.2730    9.7720    2.2300 C   0  0  0  0  0  0  0  0  0  0  0  0
   -1.7540   12.1510    2.0870 O   0  0  0  0  0  0  0  0  0  0  0  0
   -1.7070   10.9380    1.3870 C   0  0  0  0  0  0  0  0  0  0  0  0
   -1.0200   12.1600    3.2930 C   0  0  0  0  0  0  0  0  0  0  0  0
   -0.8350   10.7500    3.9130 C   0  0  0  0  0  0  0  0  0  0  0  0
  1  2  1  0
  2  4  1  0
  2  5  1  0
  3  4  2  0
  4  6  1  0
  4  7  2  0
  6  8  1  0
  6 12  1  0
  8 10  1  0
  9 10  1  0
  9 11  1  0
 11 12  1  0
M  END
$$$$
