CypD-x0158-pandda-model
     RDKit          3D

 14 15  0  0  0  0  0  0  0  0999 V2000
   -2.8700   14.2110    1.4490 C   0  0  0  0  0  0  0  0  0  0  0  0
   -1.2600   10.8540    3.2000 N   0  0  0  0  0  0  0  0  0  0  0  0
   -2.3980   13.5640    2.5910 O   0  0  0  0  0  0  0  0  0  0  0  0
   -2.7140   10.4930    3.9680 S   0  0  0  0  0  0  0  0  0  0  0  0
   -1.2080   12.8440    2.3750 C   0  0  0  0  0  0  0  0  0  0  0  0
   -2.8460    8.8520    3.5810 N   0  0  0  0  0  0  0  0  0  0  0  0
   -3.8080   11.1630    3.3150 O   0  0  0  0  0  0  0  0  0  0  0  0
   -1.4120   11.4060    1.8280 C   0  0  0  0  0  0  0  0  0  0  0  0
   -2.5660   10.6110    5.4050 O   0  0  0  0  0  0  0  0  0  0  0  0
   -0.7070   12.1530    3.6640 C   0  0  0  0  0  0  0  0  0  0  0  0
   -1.8650    8.0340    4.2860 C   0  0  0  0  0  0  0  0  0  0  0  0
   -2.4290    6.6220    4.2260 C   0  0  0  0  0  0  0  0  0  0  0  0
   -3.9330    6.8060    4.0160 C   0  0  0  0  0  0  0  0  0  0  0  0
   -4.1380    8.3140    3.9940 C   0  0  0  0  0  0  0  0  0  0  0  0
  1  3  1  0
  2  4  1  0
  2  8  1  0
  2 10  1  0
  3  5  1  0
  4  6  1  0
  4  7  2  0
  4  9  2  0
  5  8  1  0
  5 10  1  0
  6 11  1  0
  6 14  1  0
 11 12  1  0
 12 13  1  0
 13 14  1  0
M  END
$$$$
