CypD-x0126-pandda-model
     RDKit          3D

 10 10  0  0  1  0  0  0  0  0999 V2000
   -4.7419    5.8188    4.6660 C   0  0  0  0  0  0  0  0  0  0  0  0
   -1.4173    8.4635    4.3681 N   0  0  0  0  0  0  0  0  0  0  0  0
   -2.6362   11.1220    5.7496 O   0  0  0  0  0  0  0  0  0  0  0  0
   -3.7304    6.8747    5.0638 C   0  0  1  0  0  0  0  0  0  0  0  0
   -3.9433    9.5588    6.5669 N   0  0  0  0  0  0  0  0  0  0  0  0
   -2.2992    6.3341    5.1182 C   0  0  0  0  0  0  0  0  0  0  0  0
   -1.3176    7.4613    5.4330 C   0  0  0  0  0  0  0  0  0  0  0  0
   -2.7495    9.1455    4.3761 C   0  0  1  0  0  0  0  0  0  0  0  0
   -3.8209    8.0720    4.0951 C   0  0  0  0  0  0  0  0  0  0  0  0
   -3.0885   10.0095    5.6234 C   0  0  0  0  0  0  0  0  0  0  0  0
  4  1  1  6
  2  7  1  0
  2  8  1  0
  3 10  2  0
  4  6  1  0
  4  9  1  0
  5 10  1  0
  6  7  1  0
  8  9  1  0
  8 10  1  1
M  END
$$$$
