CypD-x0090-pandda-model
     RDKit          3D

 12 12  0  0  0  0  0  0  0  0999 V2000
   -0.1600   15.9164    0.9642 C   0  0  0  0  0  0  0  0  0  0  0  0
   -1.4713   17.8339    1.7441 N   0  0  0  0  0  0  0  0  0  0  0  0
   -2.7558   12.4600    2.9154 O   0  0  0  0  0  0  0  0  0  0  0  0
   -1.1611   16.5857    1.8805 C   0  0  0  0  0  0  0  0  0  0  0  0
   -2.3400   18.0908    2.7346 N   0  0  0  0  0  0  0  0  0  0  0  0
   -2.8999   19.4373    2.9109 C   0  0  0  0  0  0  0  0  0  0  0  0
   -3.0161   13.9617    1.3139 N   0  0  0  0  0  0  0  0  0  0  0  0
   -2.5773   16.9872    3.4809 C   0  0  0  0  0  0  0  0  0  0  0  0
   -3.5198   16.9617    4.6790 C   0  0  0  0  0  0  0  0  0  0  0  0
   -1.8341   15.9922    2.9459 C   0  0  0  0  0  0  0  0  0  0  0  0
   -1.7295   14.5332    3.3774 C   0  0  0  0  0  0  0  0  0  0  0  0
   -2.5402   13.5772    2.5128 C   0  0  0  0  0  0  0  0  0  0  0  0
  1  4  1  0
  2  4  2  0
  2  5  1  0
  3 12  2  0
  4 10  1  0
  5  6  1  0
  5  8  1  0
  7 12  1  0
  8  9  1  0
  8 10  2  0
 10 11  1  0
 11 12  1  0
M  END
$$$$
