CypD-x0881-pandda-model
     RDKit          3D

 13 13  0  0  1  0  0  0  0  0999 V2000
   -0.4180   12.2697    1.5663 C   0  0  0  0  0  0  0  0  0  0  0  0
   -2.3857   12.9537    3.5973 N   0  0  0  0  0  0  0  0  0  0  0  0
   -2.8407   11.0173    5.4140 O   0  0  0  0  0  0  0  0  0  0  0  0
   -0.8509   11.2601    2.6429 C   0  0  0  0  0  0  0  0  0  0  0  0
   -2.9702    9.2238    4.0536 N   0  0  0  0  0  0  0  0  0  0  0  0
   -3.5010    6.4894    3.5852 O   0  0  0  0  0  0  0  0  0  0  0  0
    0.2325   11.1876    3.7360 C   0  0  0  0  0  0  0  0  0  0  0  0
   -2.2871   11.5324    3.1726 C   0  0  1  0  0  0  0  0  0  0  0  0
   -2.7212   10.5523    4.2991 C   0  0  0  0  0  0  0  0  0  0  0  0
   -2.9145    8.6089    2.6867 C   0  0  0  0  0  0  0  0  0  0  0  0
   -3.8149    7.3771    2.5578 C   0  0  0  0  0  0  0  0  0  0  0  0
   -3.9030    6.9839    4.8352 C   0  0  0  0  0  0  0  0  0  0  0  0
   -3.1020    8.2476    5.1958 C   0  0  0  0  0  0  0  0  0  0  0  0
  1  4  1  0
  8  2  1  1
  3  9  2  0
  4  7  1  0
  4  8  1  0
  5  9  1  0
  5 10  1  0
  5 13  1  0
  6 11  1  0
  6 12  1  0
  8  9  1  0
 10 11  1  0
 12 13  1  0
M  CHG  1   2   1
M  END
$$$$
