CypD-x0392-pandda-model
     RDKit          3D

 17 18  0  0  0  0  0  0  0  0999 V2000
   -5.6378    8.9466    4.3459 C   0  0  0  0  0  0  0  0  0  0  0  0
   -4.2007    8.5909    4.4411 N   0  0  0  0  0  0  0  0  0  0  0  0
   -0.1737    5.7072    5.0280 O   0  0  0  0  0  0  0  0  0  0  0  0
   -3.9955    7.3973    5.3232 C   0  0  0  0  0  0  0  0  0  0  0  0
   -1.7331    7.0441    4.1635 N   0  0  0  0  0  0  0  0  0  0  0  0
   -2.4976    7.0665    5.4677 C   0  0  0  0  0  0  0  0  0  0  0  0
   -2.1355    8.0729    3.1483 C   0  0  0  0  0  0  0  0  0  0  0  0
   -3.6545    8.3044    3.0851 C   0  0  0  0  0  0  0  0  0  0  0  0
   -0.5920    6.2775    4.0364 C   0  0  0  0  0  0  0  0  0  0  0  0
    0.1655    6.1659    2.8038 C   0  0  0  0  0  0  0  0  0  0  0  0
    0.8096    7.2790    2.2476 C   0  0  0  0  0  0  0  0  0  0  0  0
    1.6032    7.1846    1.1165 C   0  0  0  0  0  0  0  0  0  0  0  0
    1.7603    5.9472    0.5254 C   0  0  0  0  0  0  0  0  0  0  0  0
    1.1065    4.8388    1.0340 C   0  0  0  0  0  0  0  0  0  0  0  0
    0.3147    4.9342    2.1600 C   0  0  0  0  0  0  0  0  0  0  0  0
    2.5515    5.8380   -0.5075 F   0  0  0  0  0  0  0  0  0  0  0  0
    1.2389    3.6792    0.4449 F   0  0  0  0  0  0  0  0  0  0  0  0
  1  2  1  0
  2  4  1  0
  2  8  1  0
  3  9  2  0
  4  6  1  0
  5  6  1  0
  5  7  1  0
  5  9  1  0
  7  8  1  0
  9 10  1  0
 10 11  2  0
 10 15  1  0
 11 12  1  0
 12 13  2  0
 13 14  1  0
 13 16  1  0
 14 15  2  0
 14 17  1  0
M  CHG  1   2   1
M  END
$$$$
