CypD-x0196-pandda-model
     RDKit          3D

 15 15  0  0  1  0  0  0  0  0999 V2000
   -0.1220   10.7450    3.9860 C   0  0  0  0  0  0  0  0  0  0  0  0
   -1.6500   12.6120    3.6670 N   0  0  0  0  0  0  0  0  0  0  0  0
   -2.6900   12.8650    1.6990 O   0  0  0  0  0  0  0  0  0  0  0  0
   -1.5750   11.1310    3.7050 C   0  0  2  0  0  0  0  0  0  0  0  0
   -3.4100    9.5230    4.4730 N   0  0  0  0  0  0  0  0  0  0  0  0
   -2.4860   11.0100    5.8820 O   0  0  0  0  0  0  0  0  0  0  0  0
   -2.2770   13.3500    2.7290 C   0  0  0  0  0  0  0  0  0  0  0  0
   -2.4740   14.8210    2.9850 C   0  0  0  0  0  0  0  0  0  0  0  0
   -2.5350   10.5400    4.7660 C   0  0  0  0  0  0  0  0  0  0  0  0
   -4.1110    8.7600    5.5390 C   0  0  0  0  0  0  0  0  0  0  0  0
   -3.3490    7.4890    5.9390 C   0  0  0  0  0  0  0  0  0  0  0  0
   -2.3550    6.9050    4.9200 C   0  0  0  0  0  0  0  0  0  0  0  0
   -2.9420    6.6900    3.5150 C   0  0  0  0  0  0  0  0  0  0  0  0
   -2.8850    7.9440    2.6280 C   0  0  0  0  0  0  0  0  0  0  0  0
   -3.7770    9.0910    3.1050 C   0  0  0  0  0  0  0  0  0  0  0  0
  4  1  1  1
  2  4  1  0
  2  7  1  0
  3  7  2  0
  4  9  1  0
  5  9  1  0
  5 10  1  0
  5 15  1  0
  6  9  2  0
  7  8  1  0
 10 11  1  0
 11 12  1  0
 12 13  1  0
 13 14  1  0
 14 15  1  0
M  END
$$$$
