CypD-x0579-pandda-model
     RDKit          3D

 14 14  0  0  1  0  0  0  0  0999 V2000
   -4.0310    8.6850    4.2710 C   0  0  0  0  0  0  0  0  0  0  0  0
   -1.8730    9.7600    3.8010 N   0  0  0  0  0  0  0  0  0  0  0  0
   -3.0620   11.8840    3.1280 O   0  0  0  0  0  0  0  0  0  0  0  0
   -2.1590   11.3670    4.1350 S   0  0  0  0  0  0  0  0  0  0  0  0
   -2.9690    9.0230    3.2240 C   0  0  1  0  0  0  0  0  0  0  0  0
   -2.5120   11.4100    5.5360 O   0  0  0  0  0  0  0  0  0  0  0  0
   -0.5540   12.0790    3.8550 C   0  0  0  0  0  0  0  0  0  0  0  0
   -2.3820    7.7870    2.5450 C   0  0  0  0  0  0  0  0  0  0  0  0
   -2.6190    7.6140    1.1870 C   0  0  0  0  0  0  0  0  0  0  0  0
   -2.0560    6.5560    0.4920 C   0  0  0  0  0  0  0  0  0  0  0  0
   -1.2460    5.6460    1.1470 C   0  0  0  0  0  0  0  0  0  0  0  0
   -1.0130    5.7900    2.5040 C   0  0  0  0  0  0  0  0  0  0  0  0
   -1.5810    6.8480    3.1920 C   0  0  0  0  0  0  0  0  0  0  0  0
   -1.2300    6.9490    4.9050 Cl  0  0  0  0  0  0  0  0  0  0  0  0
  5  1  1  1
  2  4  1  0
  2  5  1  0
  3  4  2  0
  4  6  2  0
  4  7  1  0
  5  8  1  0
  8  9  2  0
  8 13  1  0
  9 10  1  0
 10 11  2  0
 11 12  1  0
 12 13  2  0
 13 14  1  0
M  END
$$$$
