CypD-x0180-pandda-model
     RDKit          3D

 15 16  0  0  0  0  0  0  0  0999 V2000
   -2.1913   14.4386    2.6116 C   0  0  0  0  0  0  0  0  0  0  0  0
   -1.9706   12.1994    1.5559 N   0  0  0  0  0  0  0  0  0  0  0  0
   -3.0166   10.8702    5.3284 O   0  0  0  0  0  0  0  0  0  0  0  0
   -2.8998   13.1331    2.2384 C   0  0  0  0  0  0  0  0  0  0  0  0
   -0.9514   11.1292   -0.0407 N   0  0  0  0  0  0  0  0  0  0  0  0
   -1.8329   12.0288    0.2406 C   0  0  0  0  0  0  0  0  0  0  0  0
   -0.4826   10.6670    1.1170 N   0  0  0  0  0  0  0  0  0  0  0  0
   -1.0950   11.3117    2.0536 C   0  0  0  0  0  0  0  0  0  0  0  0
   -1.6448    9.8526    3.9040 N   0  0  0  0  0  0  0  0  0  0  0  0
   -0.8723   11.0557    3.5311 C   0  0  0  0  0  0  0  0  0  0  0  0
   -3.6697    8.8840    4.5272 N   0  0  0  0  0  0  0  0  0  0  0  0
   -2.7778    9.9002    4.6331 C   0  0  0  0  0  0  0  0  0  0  0  0
   -3.3067    7.4327    4.6274 C   0  0  0  0  0  0  0  0  0  0  0  0
   -4.7351    7.1720    5.1395 C   0  0  0  0  0  0  0  0  0  0  0  0
   -4.7475    8.6569    5.5436 C   0  0  0  0  0  0  0  0  0  0  0  0
  1  4  1  0
  2  4  1  0
  2  6  1  0
  2  8  1  0
  3 12  2  0
  5  6  2  0
  5  7  1  0
  7  8  2  0
  8 10  1  0
  9 10  1  0
  9 12  1  0
 11 12  1  0
 11 13  1  0
 11 15  1  0
 13 14  1  0
 14 15  1  0
M  END
$$$$
