CypD-x0292-pandda-model
     RDKit          3D

 13 13  0  0  1  0  0  0  0  0999 V2000
    0.0742   10.7683    3.6970 C   0  0  0  0  0  0  0  0  0  0  0  0
   -2.3100   12.6293    3.6525 N   0  0  0  0  0  0  0  0  0  0  0  0
   -2.6984   10.8815    5.6900 O   0  0  0  0  0  0  0  0  0  0  0  0
   -1.1516   10.6083    2.7759 C   0  0  0  0  0  0  0  0  0  0  0  0
   -3.5687    9.1650    4.5270 N   0  0  0  0  0  0  0  0  0  0  0  0
   -4.2105    6.3926    4.4336 O   0  0  0  0  0  0  0  0  0  0  0  0
   -0.8383   11.2209    1.4028 C   0  0  0  0  0  0  0  0  0  0  0  0
   -2.4686   11.1698    3.3675 C   0  0  1  0  0  0  0  0  0  0  0  0
   -2.9164   10.3696    4.6155 C   0  0  0  0  0  0  0  0  0  0  0  0
   -4.0590    8.4346    5.7363 C   0  0  0  0  0  0  0  0  0  0  0  0
   -3.7603    6.9303    5.6448 C   0  0  0  0  0  0  0  0  0  0  0  0
   -3.6941    7.0005    3.2922 C   0  0  0  0  0  0  0  0  0  0  0  0
   -4.0339    8.4987    3.2721 C   0  0  0  0  0  0  0  0  0  0  0  0
  1  4  1  0
  8  2  1  1
  3  9  2  0
  4  7  1  0
  4  8  1  0
  5  9  1  0
  5 10  1  0
  5 13  1  0
  6 11  1  0
  6 12  1  0
  8  9  1  0
 10 11  1  0
 12 13  1  0
M  CHG  1   2   1
M  END
$$$$
