CypD-x0393-pandda-model
     RDKit          3D

 13 13  0  0  1  0  0  0  0  0999 V2000
   -1.8619   11.8895    3.0148 C   0  0  0  0  0  0  0  0  0  0  0  0
   -2.7196   10.9429    5.2795 O   0  0  0  0  0  0  0  0  0  0  0  0
   -1.7686   10.5951    4.2433 S   0  0  0  0  0  0  0  0  0  0  0  0
   -0.1486   10.7000    4.9999 C   0  0  0  0  0  0  0  0  0  0  0  0
   -1.9236    9.3262    3.5511 O   0  0  0  0  0  0  0  0  0  0  0  0
    1.0281   10.2470    4.1501 C   0  0  1  0  0  0  0  0  0  0  0  0
    0.9789   10.7892    2.8799 O   0  0  0  0  0  0  0  0  0  0  0  0
    2.3431   10.6976    4.7774 C   0  0  0  0  0  0  0  0  0  0  0  0
    2.6841   12.0449    4.8045 C   0  0  0  0  0  0  0  0  0  0  0  0
    3.8848   12.4637    5.3499 C   0  0  0  0  0  0  0  0  0  0  0  0
    4.7591   11.5380    5.8851 C   0  0  0  0  0  0  0  0  0  0  0  0
    4.4226   10.1983    5.8789 C   0  0  0  0  0  0  0  0  0  0  0  0
    3.2217    9.7781    5.3315 C   0  0  0  0  0  0  0  0  0  0  0  0
  1  3  1  0
  2  3  2  0
  3  4  1  0
  3  5  2  0
  4  6  1  0
  6  7  1  6
  6  8  1  0
  8  9  2  0
  8 13  1  0
  9 10  1  0
 10 11  2  0
 11 12  1  0
 12 13  2  0
M  END
$$$$
