CypD-x0442-pandda-model
     RDKit          3D

 12 12  0  0  0  0  0  0  0  0999 V2000
    1.3099   14.6937    1.9945 C   0  0  0  0  0  0  0  0  0  0  0  0
   -0.6943   13.6099    2.8004 N   0  0  0  0  0  0  0  0  0  0  0  0
   -1.9857   12.1374    1.7227 O   0  0  0  0  0  0  0  0  0  0  0  0
   -0.0943   14.2517    1.6219 C   0  0  0  0  0  0  0  0  0  0  0  0
   -1.8493   11.9954    3.9636 N   0  0  0  0  0  0  0  0  0  0  0  0
   -3.7256    9.5801    5.4655 O   0  0  0  0  0  0  0  0  0  0  0  0
   -1.5408   12.5595    2.7759 C   0  0  0  0  0  0  0  0  0  0  0  0
   -2.8373   10.5438    5.5048 N   0  0  0  0  0  0  0  0  0  0  0  0
   -2.7157   10.9648    4.2965 C   0  0  0  0  0  0  0  0  0  0  0  0
   -3.5581   10.2582    3.4444 C   0  0  0  0  0  0  0  0  0  0  0  0
   -4.1742    9.3878    4.2517 C   0  0  0  0  0  0  0  0  0  0  0  0
   -5.2224    8.3293    3.9819 C   0  0  0  0  0  0  0  0  0  0  0  0
  1  4  1  0
  2  4  1  0
  2  7  1  0
  3  7  2  0
  5  7  1  0
  5  9  1  0
  6  8  1  0
  6 11  1  0
  8  9  2  0
  9 10  1  0
 10 11  2  0
 11 12  1  0
M  END
$$$$
