CypD-x0558-pandda-model
     RDKit          3D

 15 16  0  0  0  0  0  0  0  0999 V2000
   -5.1386    8.3627    4.1896 C   0  0  0  0  0  0  0  0  0  0  0  0
   -2.9878   10.1191    3.0845 N   0  0  0  0  0  0  0  0  0  0  0  0
   -2.5461   10.6664    5.2182 O   0  0  0  0  0  0  0  0  0  0  0  0
   -3.8915    8.7691    4.9894 C   0  0  0  0  0  0  0  0  0  0  0  0
   -3.2308   12.0056    0.3557 N   0  0  0  0  0  0  0  0  0  0  0  0
   -3.0917    9.9355    4.4269 C   0  0  0  0  0  0  0  0  0  0  0  0
   -3.0229   11.8250   -0.9948 N   0  0  0  0  0  0  0  0  0  0  0  0
   -2.1793   11.2175    2.4646 C   0  0  0  0  0  0  0  0  0  0  0  0
   -1.4774   10.6952    0.0361 N   0  0  0  0  0  0  0  0  0  0  0  0
   -2.3219   11.3263    0.9404 C   0  0  0  0  0  0  0  0  0  0  0  0
   -1.8980   11.0679   -1.2172 C   0  0  0  0  0  0  0  0  0  0  0  0
   -1.2579   10.7556   -2.3565 C   0  0  0  0  0  0  0  0  0  0  0  0
    0.0773   10.0379   -2.3075 C   0  0  0  0  0  0  0  0  0  0  0  0
    0.7722   10.3871   -0.9773 C   0  0  0  0  0  0  0  0  0  0  0  0
   -0.1116   10.1713    0.2665 C   0  0  0  0  0  0  0  0  0  0  0  0
  1  4  1  0
  2  6  1  0
  2  8  1  0
  3  6  2  0
  4  6  1  0
  5  7  1  0
  5 10  2  0
  7 11  1  0
  8 10  1  0
  9 10  1  0
  9 11  1  0
  9 15  1  0
 11 12  2  0
 12 13  1  0
 13 14  1  0
 14 15  1  0
M  END
$$$$
