CypD-x0179-pandda-model
     RDKit          3D

 17 19  0  0  0  0  0  0  0  0999 V2000
   -1.8520   19.1150    2.1270 C   0  0  0  0  0  0  0  0  0  0  0  0
    1.9770   17.8420   -1.9240 N   0  0  0  0  0  0  0  0  0  0  0  0
   -2.9240   18.2740    1.9060 O   0  0  0  0  0  0  0  0  0  0  0  0
   -0.8000   18.7920    1.0810 C   0  0  0  0  0  0  0  0  0  0  0  0
    3.8820   17.8220   -3.1020 N   0  0  0  0  0  0  0  0  0  0  0  0
   -0.3190   19.7820    0.2380 C   0  0  0  0  0  0  0  0  0  0  0  0
    0.6030   19.4750   -0.7460 C   0  0  0  0  0  0  0  0  0  0  0  0
    1.0580   18.1710   -0.9040 C   0  0  0  0  0  0  0  0  0  0  0  0
    0.5870   17.1860   -0.0440 C   0  0  0  0  0  0  0  0  0  0  0  0
   -0.3310   17.4940    0.9410 C   0  0  0  0  0  0  0  0  0  0  0  0
    3.2320   18.3430   -2.1210 C   0  0  0  0  0  0  0  0  0  0  0  0
    3.0180   16.9020   -3.6140 C   0  0  0  0  0  0  0  0  0  0  0  0
    3.1890   16.0320   -4.6870 C   0  0  0  0  0  0  0  0  0  0  0  0
    2.1640   15.1770   -5.0320 C   0  0  0  0  0  0  0  0  0  0  0  0
    0.9630   15.1820   -4.3140 C   0  0  0  0  0  0  0  0  0  0  0  0
    0.7870   16.0400   -3.2500 C   0  0  0  0  0  0  0  0  0  0  0  0
    1.8340   16.8990   -2.9030 C   0  0  0  0  0  0  0  0  0  0  0  0
  1  3  1  0
  1  4  1  0
  2  8  1  0
  2 11  1  0
  2 17  1  0
  4  6  2  0
  4 10  1  0
  5 11  2  0
  5 12  1  0
  6  7  1  0
  7  8  2  0
  8  9  1  0
  9 10  2  0
 12 13  2  0
 12 17  1  0
 13 14  1  0
 14 15  2  0
 15 16  1  0
 16 17  2  0
M  END
$$$$
