CypD-x0110-pandda-model
     RDKit          3D

 10 10  0  0  0  0  0  0  0  0999 V2000
   -4.2840    7.1170    5.0050 C   0  0  0  0  0  0  0  0  0  0  0  0
   -1.4650   12.4830    1.8640 N   0  0  0  0  0  0  0  0  0  0  0  0
   -3.0630    9.0630    4.4560 O   0  0  0  0  0  0  0  0  0  0  0  0
   -3.5680    8.3460    5.5540 C   0  0  0  0  0  0  0  0  0  0  0  0
   -1.6120   11.3030    1.2250 N   0  0  0  0  0  0  0  0  0  0  0  0
   -2.5110   10.8540    5.6220 O   0  0  0  0  0  0  0  0  0  0  0  0
   -2.5850   10.3040    4.5370 C   0  0  0  0  0  0  0  0  0  0  0  0
   -2.1660   10.9050    3.3010 C   0  0  0  0  0  0  0  0  0  0  0  0
   -1.7880   12.2350    3.0960 C   0  0  0  0  0  0  0  0  0  0  0  0
   -2.0380   10.3510    2.0610 C   0  0  0  0  0  0  0  0  0  0  0  0
  1  4  1  0
  2  5  1  0
  2  9  2  0
  3  4  1  0
  3  7  1  0
  5 10  1  0
  6  7  2  0
  7  8  1  0
  8  9  1  0
  8 10  2  0
M  END
$$$$
