CypD-x0902-pandda-model
     RDKit          3D

 14 15  0  0  0  0  0  0  0  0999 V2000
   -2.7670   14.5630    2.7480 C   0  0  0  0  0  0  0  0  0  0  0  0
   -1.9090   11.7950    4.7810 N   0  0  0  0  0  0  0  0  0  0  0  0
   -2.2800   13.0410    4.5770 O   0  0  0  0  0  0  0  0  0  0  0  0
   -2.3200   13.2120    3.2790 C   0  0  0  0  0  0  0  0  0  0  0  0
   -0.7750   11.1960    0.6380 N   0  0  0  0  0  0  0  0  0  0  0  0
   -2.8070   12.1230    0.5010 O   0  0  0  0  0  0  0  0  0  0  0  0
   -1.6830   11.2340    3.6540 C   0  0  0  0  0  0  0  0  0  0  0  0
   -1.9440   12.1020    2.6110 C   0  0  0  0  0  0  0  0  0  0  0  0
   -1.8630   11.8170    1.2060 C   0  0  0  0  0  0  0  0  0  0  0  0
    0.5480   11.1250    1.3370 C   0  0  0  0  0  0  0  0  0  0  0  0
    1.7050   11.2150    0.3380 C   0  0  0  0  0  0  0  0  0  0  0  0
    1.6470   10.1080   -0.7290 C   0  0  0  0  0  0  0  0  0  0  0  0
    0.2070    9.7040   -1.0870 C   0  0  0  0  0  0  0  0  0  0  0  0
   -0.7940   10.8290   -0.8120 C   0  0  0  0  0  0  0  0  0  0  0  0
  1  4  1  0
  2  3  1  0
  2  7  2  0
  3  4  1  0
  4  8  2  0
  5  9  1  0
  5 10  1  0
  5 14  1  0
  6  9  2  0
  7  8  1  0
  8  9  1  0
 10 11  1  0
 11 12  1  0
 12 13  1  0
 13 14  1  0
M  END
$$$$
