CypD-x0697-pandda-model
     RDKit          3D

 10 10  0  0  0  0  0  0  0  0999 V2000
   -4.3570    6.9550    5.1080 C   0  0  0  0  0  0  0  0  0  0  0  0
   -1.6270   12.3320    1.9010 N   0  0  0  0  0  0  0  0  0  0  0  0
   -3.2080    8.9330    4.5310 O   0  0  0  0  0  0  0  0  0  0  0  0
   -3.6920    8.2180    5.6420 C   0  0  0  0  0  0  0  0  0  0  0  0
   -1.9140   11.1830    1.2550 N   0  0  0  0  0  0  0  0  0  0  0  0
   -2.5870   10.7040    5.6900 O   0  0  0  0  0  0  0  0  0  0  0  0
   -2.7080   10.1660    4.6030 C   0  0  0  0  0  0  0  0  0  0  0  0
   -2.3410   10.7770    3.3580 C   0  0  0  0  0  0  0  0  0  0  0  0
   -1.8710   12.0780    3.1500 C   0  0  0  0  0  0  0  0  0  0  0  0
   -2.3610   10.2510    2.1020 C   0  0  0  0  0  0  0  0  0  0  0  0
  1  4  1  0
  2  5  1  0
  2  9  2  0
  3  4  1  0
  3  7  1  0
  5 10  1  0
  6  7  2  0
  7  8  1  0
  8  9  1  0
  8 10  2  0
M  END
$$$$
