CypD-x0107-pandda-model
     RDKit          3D

 14 14  0  0  0  0  0  0  0  0999 V2000
   -4.0749    7.4294    5.6315 C   0  0  0  0  0  0  0  0  0  0  0  0
   -0.7438    9.8361    3.4946 N   0  0  0  0  0  0  0  0  0  0  0  0
   -3.7403    9.2048    4.0682 O   0  0  0  0  0  0  0  0  0  0  0  0
    2.0125   10.8397    4.4666 S   0  0  0  0  0  0  0  0  0  0  0  0
   -4.7350    8.5393    4.8146 C   0  0  0  0  0  0  0  0  0  0  0  0
   -3.1980   10.6902    5.6393 O   0  0  0  0  0  0  0  0  0  0  0  0
   -3.0252   10.2212    4.5396 C   0  0  0  0  0  0  0  0  0  0  0  0
    2.7755    9.6549    4.1223 O   0  0  0  0  0  0  0  0  0  0  0  0
   -1.9158   10.7503    3.6303 C   0  0  0  0  0  0  0  0  0  0  0  0
    2.7070   11.9700    5.0486 O   0  0  0  0  0  0  0  0  0  0  0  0
   -0.2029    9.3166    4.7684 C   0  0  0  0  0  0  0  0  0  0  0  0
    0.6610   10.3353    5.5060 C   0  0  0  0  0  0  0  0  0  0  0  0
    1.1390   11.3833    3.0134 C   0  0  0  0  0  0  0  0  0  0  0  0
    0.2386   10.2667    2.4895 C   0  0  0  0  0  0  0  0  0  0  0  0
  1  5  1  0
  2  9  1  0
  2 11  1  0
  2 14  1  0
  3  5  1  0
  3  7  1  0
  4  8  2  0
  4 10  2  0
  4 12  1  0
  4 13  1  0
  6  7  2  0
  7  9  1  0
 11 12  1  0
 13 14  1  0
M  END
$$$$
