CypD-x0091-pandda-model
     RDKit          3D

 15 15  0  0  0  0  0  0  0  0999 V2000
   -5.1481   11.9086   -5.7386 C   0  0  0  0  0  0  0  0  0  0  0  0
   -3.7876   11.7402   -5.1516 N   0  0  0  0  0  0  0  0  0  0  0  0
   -4.3925   12.4684   -3.1113 O   0  0  0  0  0  0  0  0  0  0  0  0
   -2.8288   10.9665   -5.9945 C   0  0  0  0  0  0  0  0  0  0  0  0
   -1.6023   10.9085   -2.9862 N   0  0  0  0  0  0  0  0  0  0  0  0
    2.5750   10.9046   -2.1362 O   0  0  0  0  0  0  0  0  0  0  0  0
   -3.4822   12.1279   -3.8565 C   0  0  0  0  0  0  0  0  0  0  0  0
    2.4965   12.9359   -1.6794 O   0  0  0  0  0  0  0  0  0  0  0  0
   -2.1201   12.0901   -3.3382 C   0  0  0  0  0  0  0  0  0  0  0  0
   -1.3962   13.2661   -3.1924 C   0  0  0  0  0  0  0  0  0  0  0  0
   -0.0939   13.2301   -2.7526 C   0  0  0  0  0  0  0  0  0  0  0  0
    0.4862   11.9972   -2.4710 C   0  0  0  0  0  0  0  0  0  0  0  0
    1.8855   11.9334   -2.0821 C   0  0  0  0  0  0  0  0  0  0  0  0
   -0.3451   10.8747   -2.5922 C   0  0  0  0  0  0  0  0  0  0  0  0
    0.1367    9.4776   -2.2575 C   0  0  0  0  0  0  0  0  0  0  0  0
  1  2  1  0
  2  4  1  0
  2  7  1  0
  3  7  2  0
  5  9  2  0
  5 14  1  0
  6 13  1  0
  7  9  1  0
  8 13  2  0
  9 10  1  0
 10 11  2  0
 11 12  1  0
 12 13  1  0
 12 14  2  0
 14 15  1  0
M  CHG  1   6  -1
M  END
$$$$
