CypD-x0364-pandda-model
     RDKit          3D

 14 15  0  0  1  0  0  0  0  0999 V2000
   -3.7268    5.8850    5.3233 C   0  0  0  0  0  0  0  0  0  0  0  0
   -2.4706    6.7917    3.4369 N   0  0  0  0  0  0  0  0  0  0  0  0
   -1.7587    9.7150    3.5366 O   0  0  0  0  0  0  0  0  0  0  0  0
   -2.5929    9.6868    4.7303 S   0  0  0  0  0  0  0  0  0  0  0  0
   -3.2939    7.1586    4.6081 C   0  0  1  0  0  0  0  0  0  0  0  0
   -2.5382   10.7658    5.6889 O   0  0  0  0  0  0  0  0  0  0  0  0
   -4.5332    7.9292    4.1015 C   0  0  0  0  0  0  0  0  0  0  0  0
   -0.6474    5.8794    4.4162 O   0  0  0  0  0  0  0  0  0  0  0  0
   -4.2863    9.4386    4.2527 C   0  0  0  0  0  0  0  0  0  0  0  0
   -2.5127    8.1050    5.5226 C   0  0  0  0  0  0  0  0  0  0  0  0
   -1.2535    6.1834    3.4132 C   0  0  0  0  0  0  0  0  0  0  0  0
   -0.6409    5.8873    2.0479 C   0  0  0  0  0  0  0  0  0  0  0  0
    0.1349    4.6256    1.7932 C   0  0  0  0  0  0  0  0  0  0  0  0
    0.8444    5.9412    1.8325 C   0  0  0  0  0  0  0  0  0  0  0  0
  5  1  1  1
  2  5  1  0
  2 11  1  0
  3  4  2  0
  4  6  2  0
  4  9  1  0
  4 10  1  0
  5  7  1  0
  5 10  1  0
  7  9  1  0
  8 11  2  0
 11 12  1  0
 12 13  1  0
 12 14  1  0
 13 14  1  0
M  END
$$$$
