CypD-x0207-pandda-model
     RDKit          3D

 10 11  0  0  0  0  0  0  0  0999 V2000
   -4.1677    7.1294    3.8484 C   0  0  0  0  0  0  0  0  0  0  0  0
   -3.0070    6.8626    3.1453 N   0  0  0  0  0  0  0  0  0  0  0  0
   -2.4220    6.9234    5.6267 S   0  0  0  0  0  0  0  0  0  0  0  0
   -4.0756    7.1939    5.1832 C   0  0  0  0  0  0  0  0  0  0  0  0
   -0.1219    6.0925    2.4498 N   0  0  0  0  0  0  0  0  0  0  0  0
   -1.9883    6.7317    3.9280 C   0  0  0  0  0  0  0  0  0  0  0  0
    1.1896    5.9321    2.5916 N   0  0  0  0  0  0  0  0  0  0  0  0
   -0.6102    6.4630    3.6085 C   0  0  0  0  0  0  0  0  0  0  0  0
    0.3900    6.5665    4.4943 N   0  0  0  0  0  0  0  0  0  0  0  0
    1.4719    6.2251    3.8120 C   0  0  0  0  0  0  0  0  0  0  0  0
  1  2  1  0
  1  4  2  0
  2  6  2  0
  3  4  1  0
  3  6  1  0
  5  7  1  0
  5  8  2  0
  6  8  1  0
  7 10  2  0
  8  9  1  0
  9 10  1  0
M  END
$$$$
