CypD-x0596-pandda-model
     RDKit          3D

 12 12  0  0  1  0  0  0  0  0999 V2000
   -2.5474   11.2660    3.2381 C   0  0  0  0  0  0  0  0  0  0  0  0
   -3.1035    8.7635    4.1784 N   0  0  0  0  0  0  0  0  0  0  0  0
   -0.8056    9.7304    4.4535 O   0  0  0  0  0  0  0  0  0  0  0  0
   -2.1904   10.1366    4.5680 S   0  0  0  0  0  0  0  0  0  0  0  0
   -4.5522    8.9153    4.4123 C   0  0  0  0  0  0  0  0  0  0  0  0
   -0.9877    7.1958    3.1169 N   0  0  0  0  0  0  0  0  0  0  0  0
   -2.7037   10.6730    5.8068 O   0  0  0  0  0  0  0  0  0  0  0  0
   -4.9686    7.7903    5.3390 C   0  0  0  0  0  0  0  0  0  0  0  0
   -1.1776    5.6660    4.6841 O   0  0  0  0  0  0  0  0  0  0  0  0
   -3.9028    6.7385    5.1520 C   0  0  0  0  0  0  0  0  0  0  0  0
   -2.6433    7.5676    4.9506 C   0  0  1  0  0  0  0  0  0  0  0  0
   -1.5435    6.7343    4.2528 C   0  0  0  0  0  0  0  0  0  0  0  0
  1  4  1  0
  2  4  1  0
  2  5  1  0
  2 11  1  0
  3  4  2  0
  4  7  2  0
  5  8  1  0
  6 12  1  0
  8 10  1  0
  9 12  2  0
 10 11  1  0
 11 12  1  6
M  END
$$$$
