CypD-x0460-pandda-model
     RDKit          3D

 15 15  0  0  1  0  0  0  0  0999 V2000
   -0.7146   10.5375    1.3342 C   0  0  0  0  0  0  0  0  0  0  0  0
   -2.3372   12.2211    3.2551 N   0  0  0  0  0  0  0  0  0  0  0  0
   -3.0154   12.6866    1.1719 O   0  0  0  0  0  0  0  0  0  0  0  0
   -1.2419   10.0553    2.6985 C   0  0  0  0  0  0  0  0  0  0  0  0
   -3.7540    8.9968    4.5439 N   0  0  0  0  0  0  0  0  0  0  0  0
   -2.7357   10.7116    5.5988 O   0  0  0  0  0  0  0  0  0  0  0  0
   -0.0924   10.1305    3.7212 C   0  0  0  0  0  0  0  0  0  0  0  0
   -2.5446   10.7667    3.1794 C   0  0  1  0  0  0  0  0  0  0  0  0
   -2.5896   13.0661    2.2612 C   0  0  0  0  0  0  0  0  0  0  0  0
   -2.3314   14.5345    2.5211 C   0  0  0  0  0  0  0  0  0  0  0  0
   -3.0309   10.1636    4.5315 C   0  0  0  0  0  0  0  0  0  0  0  0
   -4.3180    8.2850    3.3741 C   0  0  0  0  0  0  0  0  0  0  0  0
   -4.2730    6.8257    3.7894 C   0  0  0  0  0  0  0  0  0  0  0  0
   -4.5541    6.8664    5.2868 C   0  0  0  0  0  0  0  0  0  0  0  0
   -3.9873    8.2013    5.7698 C   0  0  0  0  0  0  0  0  0  0  0  0
  1  4  1  0
  8  2  1  1
  2  9  1  0
  3  9  2  0
  4  7  1  0
  4  8  1  0
  5 11  1  0
  5 12  1  0
  5 15  1  0
  6 11  2  0
  8 11  1  0
  9 10  1  0
 12 13  1  0
 13 14  1  0
 14 15  1  0
M  END
$$$$
