CypD-x0677-pandda-model
     RDKit          3D

 12 12  0  0  0  0  0  0  0  0999 V2000
   -0.7493   10.6841   -0.2159 C   0  0  0  0  0  0  0  0  0  0  0  0
   -2.0442   12.3028    1.0798 N   0  0  0  0  0  0  0  0  0  0  0  0
    2.2022   11.8869   -1.5163 O   0  0  0  0  0  0  0  0  0  0  0  0
   -0.8914   11.9468    0.6033 C   0  0  0  0  0  0  0  0  0  0  0  0
   -1.8018   13.4420    1.7556 N   0  0  0  0  0  0  0  0  0  0  0  0
   -2.8806   14.1505    2.4614 C   0  0  0  0  0  0  0  0  0  0  0  0
    2.0366   14.0807   -1.4359 N   0  0  0  0  0  0  0  0  0  0  0  0
   -0.4961   13.7871    1.6848 C   0  0  0  0  0  0  0  0  0  0  0  0
    0.0740   15.0259    2.3580 C   0  0  0  0  0  0  0  0  0  0  0  0
    0.1250   12.8352    0.9503 C   0  0  0  0  0  0  0  0  0  0  0  0
    1.6126   12.7249    0.6154 C   0  0  0  0  0  0  0  0  0  0  0  0
    1.9453   12.8685   -0.8629 C   0  0  0  0  0  0  0  0  0  0  0  0
  1  4  1  0
  2  4  2  0
  2  5  1  0
  3 12  2  0
  4 10  1  0
  5  6  1  0
  5  8  1  0
  7 12  1  0
  8  9  1  0
  8 10  2  0
 10 11  1  0
 11 12  1  0
M  END
$$$$
