CypD-x0625-pandda-model
     RDKit          3D

 11 11  0  0  0  0  0  0  0  0999 V2000
    1.8321   11.5532    0.0286 N   0  0  0  0  0  0  0  0  0  0  0  0
    2.9804   13.5779   -0.7315 O   0  0  0  0  0  0  0  0  0  0  0  0
    1.6512   13.0243   -0.6810 S   0  0  0  0  0  0  0  0  0  0  0  0
    1.1779   12.5540   -2.2213 N   0  0  0  0  0  0  0  0  0  0  0  0
    0.5686   13.6789    0.0109 O   0  0  0  0  0  0  0  0  0  0  0  0
    0.4571   11.2618   -4.6563 N   0  0  0  0  0  0  0  0  0  0  0  0
    2.5708   11.3338   -5.3329 O   0  0  0  0  0  0  0  0  0  0  0  0
   -0.0381   11.7338   -2.2429 C   0  0  0  0  0  0  0  0  0  0  0  0
   -0.5969   11.5956   -3.6617 C   0  0  0  0  0  0  0  0  0  0  0  0
    1.7785   11.4694   -4.4268 C   0  0  0  0  0  0  0  0  0  0  0  0
    2.2477   11.9172   -3.0283 C   0  0  0  0  0  0  0  0  0  0  0  0
  1  3  1  0
  2  3  2  0
  3  4  1  0
  3  5  2  0
  4  8  1  0
  4 11  1  0
  6  9  1  0
  6 10  1  0
  7 10  2  0
  8  9  1  0
 10 11  1  0
M  END
$$$$
