CypD-x0530-pandda-model
     RDKit          3D

 15 15  0  0  0  0  0  0  0  0999 V2000
   -1.1909   12.5361   -1.6547 C   0  0  0  0  0  0  0  0  0  0  0  0
   -1.1108   12.4631    3.6114 N   0  0  0  0  0  0  0  0  0  0  0  0
    0.0270   11.8133   -1.7093 O   0  0  0  0  0  0  0  0  0  0  0  0
   -1.9068   10.9617    3.7973 S   0  0  0  0  0  0  0  0  0  0  0  0
    1.0352   11.9702   -0.8489 C   0  0  0  0  0  0  0  0  0  0  0  0
    2.1281   11.5693   -1.1988 O   0  0  0  0  0  0  0  0  0  0  0  0
    0.8327   12.6238    0.4319 C   0  0  0  0  0  0  0  0  0  0  0  0
   -2.4161   10.9635    5.1500 O   0  0  0  0  0  0  0  0  0  0  0  0
    1.6701   13.6804    0.7749 C   0  0  0  0  0  0  0  0  0  0  0  0
   -2.7908   10.8020    2.6690 O   0  0  0  0  0  0  0  0  0  0  0  0
    1.5598   14.3286    1.9887 C   0  0  0  0  0  0  0  0  0  0  0  0
    0.6087   13.9163    2.8948 C   0  0  0  0  0  0  0  0  0  0  0  0
   -0.2377   12.8564    2.6073 C   0  0  0  0  0  0  0  0  0  0  0  0
   -0.5327    9.8315    3.7065 C   0  0  0  0  0  0  0  0  0  0  0  0
   -0.1331   12.2375    1.3639 C   0  0  0  0  0  0  0  0  0  0  0  0
  1  3  1  0
  2  4  1  0
  2 13  1  0
  3  5  1  0
  4  8  2  0
  4 10  2  0
  4 14  1  0
  5  6  2  0
  5  7  1  0
  7  9  2  0
  7 15  1  0
  9 11  1  0
 11 12  2  0
 12 13  1  0
 13 15  2  0
M  END
$$$$
