CypD-x0181-pandda-model
     RDKit          3D

 16 17  0  0  0  0  0  0  0  0999 V2000
   -1.9893   14.4049   -2.8142 C   0  0  0  0  0  0  0  0  0  0  0  0
   -1.9035   14.0495    0.4048 N   0  0  0  0  0  0  0  0  0  0  0  0
   -3.8650   12.8774   -0.5963 O   0  0  0  0  0  0  0  0  0  0  0  0
   -2.4231   12.7699   -0.5367 S   0  0  0  0  0  0  0  0  0  0  0  0
   -1.6731   13.0545   -2.1484 C   0  0  0  0  0  0  0  0  0  0  0  0
   -1.8608   11.5615    0.0206 O   0  0  0  0  0  0  0  0  0  0  0  0
   -1.9633   13.7845    1.8331 C   0  0  0  0  0  0  0  0  0  0  0  0
   -3.5714   18.5216    4.3765 O   0  0  0  0  0  0  0  0  0  0  0  0
   -2.3460   15.0509    2.5965 C   0  0  0  0  0  0  0  0  0  0  0  0
   -2.2235   18.7071    2.5381 O   0  0  0  0  0  0  0  0  0  0  0  0
   -3.1192   14.9419    3.7543 C   0  0  0  0  0  0  0  0  0  0  0  0
   -3.5554   16.0684    4.4437 C   0  0  0  0  0  0  0  0  0  0  0  0
   -3.2091   17.3067    3.9409 C   0  0  0  0  0  0  0  0  0  0  0  0
   -2.9804   19.4667    3.4772 C   0  0  0  0  0  0  0  0  0  0  0  0
   -2.4200   17.4207    2.8346 C   0  0  0  0  0  0  0  0  0  0  0  0
   -1.9606   16.3144    2.1502 C   0  0  0  0  0  0  0  0  0  0  0  0
  1  5  1  0
  2  4  1  0
  2  7  1  0
  3  4  2  0
  4  5  1  0
  4  6  2  0
  7  9  1  0
  8 13  1  0
  8 14  1  0
  9 11  2  0
  9 16  1  0
 10 14  1  0
 10 15  1  0
 11 12  1  0
 12 13  2  0
 13 15  1  0
 15 16  2  0
M  END
$$$$
