CypD-x0107-pandda-model
     RDKit          3D

 14 14  0  0  0  0  0  0  0  0999 V2000
    0.1180   10.5690   -3.3000 C   0  0  0  0  0  0  0  0  0  0  0  0
   -1.0790    9.5780    2.1550 N   0  0  0  0  0  0  0  0  0  0  0  0
   -0.9930   10.1320   -1.2270 O   0  0  0  0  0  0  0  0  0  0  0  0
   -2.2750   10.3780    4.6770 S   0  0  0  0  0  0  0  0  0  0  0  0
   -0.9020   11.0680   -2.2790 C   0  0  0  0  0  0  0  0  0  0  0  0
    0.7490   10.9240   -0.0910 O   0  0  0  0  0  0  0  0  0  0  0  0
   -0.1640   10.1440   -0.1880 C   0  0  0  0  0  0  0  0  0  0  0  0
   -2.5530   11.3310    5.7260 O   0  0  0  0  0  0  0  0  0  0  0  0
   -0.4530    9.0920    0.8880 C   0  0  0  0  0  0  0  0  0  0  0  0
   -2.7890    9.0330    4.8270 O   0  0  0  0  0  0  0  0  0  0  0  0
   -0.1360   10.4020    2.9320 C   0  0  0  0  0  0  0  0  0  0  0  0
   -0.5090   10.3370    4.4110 C   0  0  0  0  0  0  0  0  0  0  0  0
   -2.8720   11.0440    3.1360 C   0  0  0  0  0  0  0  0  0  0  0  0
   -2.3950   10.2330    1.9270 C   0  0  0  0  0  0  0  0  0  0  0  0
  1  5  1  0
  2  9  1  0
  2 11  1  0
  2 14  1  0
  3  5  1  0
  3  7  1  0
  4  8  2  0
  4 10  2  0
  4 12  1  0
  4 13  1  0
  6  7  2  0
  7  9  1  0
 11 12  1  0
 13 14  1  0
M  END
$$$$
