CypD-x0425-pandda-model
     RDKit          3D

 15 16  0  0  0  0  0  0  0  0999 V2000
    0.2444   10.8062    1.3887 C   0  0  0  0  0  0  0  0  0  0  0  0
   -0.5771   11.2145    2.5577 N   0  0  0  0  0  0  0  0  0  0  0  0
   -2.3840    7.4667    3.8564 O   0  0  0  0  0  0  0  0  0  0  0  0
   -0.3844   10.4134    3.7917 C   0  0  0  0  0  0  0  0  0  0  0  0
   -1.2482    8.0630    3.6193 N   0  0  0  0  0  0  0  0  0  0  0  0
   -2.3737   11.9115    1.4155 O   0  0  0  0  0  0  0  0  0  0  0  0
   -1.4371    9.3119    3.8858 C   0  0  0  0  0  0  0  0  0  0  0  0
   -1.9381   12.9701    3.3393 N   0  0  0  0  0  0  0  0  0  0  0  0
   -2.7550    9.5300    4.2823 C   0  0  0  0  0  0  0  0  0  0  0  0
   -3.3035    8.3089    4.2476 C   0  0  0  0  0  0  0  0  0  0  0  0
   -4.7087    7.8308    4.5524 C   0  0  0  0  0  0  0  0  0  0  0  0
   -1.6619   12.0264    2.4022 C   0  0  0  0  0  0  0  0  0  0  0  0
   -2.7636   14.1574    3.0499 C   0  0  0  0  0  0  0  0  0  0  0  0
   -2.0967   15.4874    3.1567 C   0  0  0  0  0  0  0  0  0  0  0  0
   -3.1387   15.0865    4.1533 C   0  0  0  0  0  0  0  0  0  0  0  0
  1  2  1  0
  2  4  1  0
  2 12  1  0
  3  5  1  0
  3 10  1  0
  4  7  1  0
  5  7  2  0
  6 12  2  0
  7  9  1  0
  8 12  1  0
  8 13  1  0
  9 10  2  0
 10 11  1  0
 13 14  1  0
 13 15  1  0
 14 15  1  0
M  END
$$$$
