CypD-x0947-pandda-model
     RDKit          3D

 13 14  0  0  0  0  0  0  0  0999 V2000
   -1.4760   13.6630   -2.5130 C   0  0  0  0  0  0  0  0  0  0  0  0
   -3.1810   12.7170   -4.4620 N   0  0  0  0  0  0  0  0  0  0  0  0
   -2.0520   11.0790   -2.9930 O   0  0  0  0  0  0  0  0  0  0  0  0
   -2.6900   12.3760   -2.9140 S   0  0  0  0  0  0  0  0  0  0  0  0
   -1.0900   13.8920   -1.1910 C   0  0  0  0  0  0  0  0  0  0  0  0
    1.4240   16.5890   -1.6400 N   0  0  0  0  0  0  0  0  0  0  0  0
   -3.9120   12.4990   -2.1510 O   0  0  0  0  0  0  0  0  0  0  0  0
    1.0030   16.3920   -4.2500 S   0  0  0  0  0  0  0  0  0  0  0  0
   -0.1470   14.8520   -0.8500 C   0  0  0  0  0  0  0  0  0  0  0  0
    0.4540   15.6070   -1.8430 C   0  0  0  0  0  0  0  0  0  0  0  0
    1.9670   17.1890   -2.8980 C   0  0  0  0  0  0  0  0  0  0  0  0
    0.0770   15.3630   -3.1470 C   0  0  0  0  0  0  0  0  0  0  0  0
   -0.8660   14.4260   -3.5080 C   0  0  0  0  0  0  0  0  0  0  0  0
  1  4  1  0
  1  5  2  0
  1 13  1  0
  2  4  1  0
  3  4  2  0
  4  7  2  0
  5  9  1  0
  6 10  1  0
  6 11  1  0
  8 11  1  0
  8 12  1  0
  9 10  2  0
 10 12  1  0
 12 13  2  0
M  END
$$$$
