CypD-x0270-pandda-model
     RDKit          3D

 15 16  0  0  1  0  0  0  0  0999 V2000
    3.3250    9.2530    5.5140 C   0  0  0  0  0  0  0  0  0  0  0  0
    2.9460   10.5140    6.2210 N   0  0  2  0  0  0  0  0  0  0  0  0
    5.8480    9.8160    6.6480 O   0  0  0  0  0  0  0  0  0  0  0  0
    2.0060   11.3240    5.4230 C   0  0  0  0  0  0  0  0  0  0  0  0
    6.0920   11.4540    8.1610 N   0  0  0  0  0  0  0  0  0  0  0  0
    2.8990   12.2370    4.5850 C   0  0  0  0  0  0  0  0  0  0  0  0
    4.2610   12.2720    5.2950 C   0  0  0  0  0  0  0  0  0  0  0  0
    4.0870   11.4330    6.5620 C   0  0  2  0  0  0  0  0  0  0  0  0
    5.4170   10.8420    7.1270 C   0  0  0  0  0  0  0  0  0  0  0  0
    5.7460   12.7910    8.7470 C   0  0  0  0  0  0  0  0  0  0  0  0
    6.9730   13.7060    8.8990 C   0  0  0  0  0  0  0  0  0  0  0  0
    8.0960   12.9700    9.6040 C   0  0  0  0  0  0  0  0  0  0  0  0
    8.1610   11.6370    9.5800 C   0  0  0  0  0  0  0  0  0  0  0  0
    7.1970   10.7020    8.8580 C   0  0  0  0  0  0  0  0  0  0  0  0
    9.1130   10.9950   10.2040 F   0  0  0  0  0  0  0  0  0  0  0  0
  2  1  1  6
  2  4  1  0
  2  8  1  0
  3  9  2  0
  4  6  1  0
  5  9  1  0
  5 10  1  0
  5 14  1  0
  6  7  1  0
  7  8  1  0
  8  9  1  6
 10 11  1  0
 11 12  1  0
 12 13  2  0
 13 14  1  0
 13 15  1  0
M  CHG  1   2   1
M  END
$$$$
