CypD-x0596-pandda-model
     RDKit          3D

 12 12  0  0  1  0  0  0  0  0999 V2000
   -0.7410   10.5040    3.6740 C   0  0  0  0  0  0  0  0  0  0  0  0
   -2.9080    8.8600    4.0940 N   0  0  0  0  0  0  0  0  0  0  0  0
   -2.5090   10.8170    5.6250 O   0  0  0  0  0  0  0  0  0  0  0  0
   -2.4370   10.4800    4.2200 S   0  0  0  0  0  0  0  0  0  0  0  0
   -4.3080    8.6570    4.4800 C   0  0  0  0  0  0  0  0  0  0  0  0
    0.1010    6.7360    4.6000 N   0  0  0  0  0  0  0  0  0  0  0  0
   -3.2250   11.2280    3.2650 O   0  0  0  0  0  0  0  0  0  0  0  0
   -4.3860    7.2050    4.9050 C   0  0  0  0  0  0  0  0  0  0  0  0
   -1.3410    6.7690    2.9270 O   0  0  0  0  0  0  0  0  0  0  0  0
   -3.0730    7.0190    5.6420 C   0  0  0  0  0  0  0  0  0  0  0  0
   -2.0860    7.9320    4.9120 C   0  0  1  0  0  0  0  0  0  0  0  0
   -1.0830    7.1040    4.0670 C   0  0  0  0  0  0  0  0  0  0  0  0
  1  4  1  0
  2  4  1  0
  2  5  1  0
  2 11  1  0
  3  4  2  0
  4  7  2  0
  5  8  1  0
  6 12  1  0
  8 10  1  0
  9 12  2  0
 10 11  1  0
 11 12  1  6
M  END
$$$$
