CypD-x0720-pandda-model
     RDKit          3D

 15 16  0  0  0  0  0  0  0  0999 V2000
   -4.6802    6.6669    5.1390 C   0  0  0  0  0  0  0  0  0  0  0  0
   -1.9003    8.9689    3.8249 N   0  0  0  0  0  0  0  0  0  0  0  0
   -2.8139   11.6704    1.6074 O   0  0  0  0  0  0  0  0  0  0  0  0
   -3.4886    7.1880    4.3561 C   0  0  0  0  0  0  0  0  0  0  0  0
   -0.7280   10.9249    2.0848 N   0  0  0  0  0  0  0  0  0  0  0  0
   -3.3604    9.3656    5.3766 O   0  0  0  0  0  0  0  0  0  0  0  0
   -2.9414    8.4067    4.5137 C   0  0  0  0  0  0  0  0  0  0  0  0
   -2.6842   10.5047    5.1481 N   0  0  0  0  0  0  0  0  0  0  0  0
   -1.8565   10.2709    4.2180 C   0  0  0  0  0  0  0  0  0  0  0  0
   -0.9106   11.2524    3.5374 C   0  0  0  0  0  0  0  0  0  0  0  0
    0.4645   10.3997    1.6173 C   0  0  0  0  0  0  0  0  0  0  0  0
    0.6510   10.1656    0.2915 C   0  0  0  0  0  0  0  0  0  0  0  0
   -0.3804   10.4330   -0.6388 C   0  0  0  0  0  0  0  0  0  0  0  0
   -1.5482   10.9562   -0.1853 C   0  0  0  0  0  0  0  0  0  0  0  0
   -1.7532   11.2134    1.1980 C   0  0  0  0  0  0  0  0  0  0  0  0
  1  4  1  0
  2  7  1  0
  2  9  1  0
  3 15  2  0
  4  7  2  0
  5 10  1  0
  5 11  1  0
  5 15  1  0
  6  7  1  0
  6  8  1  0
  8  9  2  0
  9 10  1  0
 11 12  2  0
 12 13  1  0
 13 14  2  0
 14 15  1  0
M  END
$$$$
