CypD-x0196-pandda-model
     RDKit          3D

 15 15  0  0  1  0  0  0  0  0999 V2000
   -2.4452   13.6468   -4.1437 C   0  0  0  0  0  0  0  0  0  0  0  0
   -3.9627   12.5089   -2.5159 N   0  0  0  0  0  0  0  0  0  0  0  0
   -3.6306   12.4107   -0.3266 O   0  0  0  0  0  0  0  0  0  0  0  0
   -3.6781   12.7508   -3.9653 C   0  0  2  0  0  0  0  0  0  0  0  0
   -4.5772   11.0146   -5.6161 N   0  0  0  0  0  0  0  0  0  0  0  0
   -2.5995   10.7548   -4.5986 O   0  0  0  0  0  0  0  0  0  0  0  0
   -3.1656   12.3377   -1.4344 C   0  0  0  0  0  0  0  0  0  0  0  0
   -1.6927   12.0430   -1.5403 C   0  0  0  0  0  0  0  0  0  0  0  0
   -3.5840   11.4393   -4.7722 C   0  0  0  0  0  0  0  0  0  0  0  0
   -5.4044   11.9481   -6.4250 C   0  0  0  0  0  0  0  0  0  0  0  0
   -4.5427   12.6157   -7.5084 C   0  0  0  0  0  0  0  0  0  0  0  0
   -3.4641   11.7243   -8.1573 C   0  0  0  0  0  0  0  0  0  0  0  0
   -3.9315   10.2972   -8.4723 C   0  0  0  0  0  0  0  0  0  0  0  0
   -3.7505    9.3401   -7.2826 C   0  0  0  0  0  0  0  0  0  0  0  0
   -4.6752    9.6074   -6.0868 C   0  0  0  0  0  0  0  0  0  0  0  0
  4  1  1  1
  2  4  1  0
  2  7  1  0
  3  7  2  0
  4  9  1  0
  5  9  1  0
  5 10  1  0
  5 15  1  0
  6  9  2  0
  7  8  1  0
 10 11  1  0
 11 12  1  0
 12 13  1  0
 13 14  1  0
 14 15  1  0
M  END
$$$$
