CypD-x0713-pandda-model
     RDKit          3D

 10 10  0  0  1  0  0  0  0  0999 V2000
   -4.8928    6.6838    5.4783 C   0  0  0  0  0  0  0  0  0  0  0  0
   -1.7357    8.3829    3.5064 N   0  0  0  0  0  0  0  0  0  0  0  0
   -2.7049   10.8366    5.8169 O   0  0  0  0  0  0  0  0  0  0  0  0
   -3.7321    7.6770    5.4443 C   0  0  1  0  0  0  0  0  0  0  0  0
   -1.1236   11.2701    4.3400 N   0  0  0  0  0  0  0  0  0  0  0  0
   -2.4164    6.8986    5.2640 C   0  0  0  0  0  0  0  0  0  0  0  0
   -1.2706    7.7634    4.7573 C   0  0  0  0  0  0  0  0  0  0  0  0
   -2.7349    9.4401    3.8424 C   0  0  1  0  0  0  0  0  0  0  0  0
   -3.9939    8.7088    4.3299 C   0  0  0  0  0  0  0  0  0  0  0  0
   -2.1992   10.5743    4.7518 C   0  0  0  0  0  0  0  0  0  0  0  0
  4  1  1  6
  2  7  1  0
  2  8  1  0
  3 10  2  0
  4  6  1  0
  4  9  1  0
  5 10  1  0
  6  7  1  0
  8  9  1  0
  8 10  1  1
M  END
$$$$
