CypD-x0442-pandda-model
     RDKit          3D

 12 12  0  0  0  0  0  0  0  0999 V2000
   -1.7950   16.5330    3.0510 C   0  0  0  0  0  0  0  0  0  0  0  0
   -2.4710   14.2500    2.5350 N   0  0  0  0  0  0  0  0  0  0  0  0
   -2.6000   12.2050    1.6910 O   0  0  0  0  0  0  0  0  0  0  0  0
   -2.4620   15.2760    3.5990 C   0  0  0  0  0  0  0  0  0  0  0  0
   -2.1540   12.3510    3.8840 N   0  0  0  0  0  0  0  0  0  0  0  0
   -2.8600    9.5720    5.7450 O   0  0  0  0  0  0  0  0  0  0  0  0
   -2.4120   12.9060    2.6720 C   0  0  0  0  0  0  0  0  0  0  0  0
   -2.2550   10.7230    5.5720 N   0  0  0  0  0  0  0  0  0  0  0  0
   -2.5920   11.1330    4.4010 C   0  0  0  0  0  0  0  0  0  0  0  0
   -3.4560   10.2200    3.7990 C   0  0  0  0  0  0  0  0  0  0  0  0
   -3.5820    9.2450    4.7070 C   0  0  0  0  0  0  0  0  0  0  0  0
   -4.3640    7.9470    4.6960 C   0  0  0  0  0  0  0  0  0  0  0  0
  1  4  1  0
  2  4  1  0
  2  7  1  0
  3  7  2  0
  5  7  1  0
  5  9  1  0
  6  8  1  0
  6 11  1  0
  8  9  2  0
  9 10  1  0
 10 11  2  0
 11 12  1  0
M  END
$$$$
