CypD-x0400-pandda-model
     RDKit          3D

 14 14  0  0  0  0  0  0  0  0999 V2000
   -0.2510   14.6639    1.1739 C   0  0  0  0  0  0  0  0  0  0  0  0
   -1.3979   14.0249    3.2679 N   0  0  0  0  0  0  0  0  0  0  0  0
   -0.2267   14.6989    2.7020 C   0  0  0  0  0  0  0  0  0  0  0  0
   -3.8575   19.5796    5.3806 N   0  0  0  0  0  0  0  0  0  0  0  0
    1.0031   13.9634    3.2001 C   0  0  0  0  0  0  0  0  0  0  0  0
   -2.7108   14.5699    2.8592 C   0  0  0  0  0  0  0  0  0  0  0  0
   -2.9515   15.9042    3.5393 C   0  0  0  0  0  0  0  0  0  0  0  0
   -2.5505   17.0937    2.9487 C   0  0  0  0  0  0  0  0  0  0  0  0
   -2.8274   18.3029    3.5576 C   0  0  0  0  0  0  0  0  0  0  0  0
   -3.5198   18.3658    4.7642 C   0  0  0  0  0  0  0  0  0  0  0  0
   -3.9030   17.1634    5.3495 C   0  0  0  0  0  0  0  0  0  0  0  0
   -3.6224   15.9507    4.7495 C   0  0  0  0  0  0  0  0  0  0  0  0
   -3.4447   19.7392    6.7984 C   0  0  0  0  0  0  0  0  0  0  0  0
   -3.8292   20.8429    4.5883 C   0  0  0  0  0  0  0  0  0  0  0  0
  1  3  1  0
  2  3  1  0
  2  6  1  0
  3  5  1  0
  4 10  1  0
  4 13  1  0
  4 14  1  0
  6  7  1  0
  7  8  2  0
  7 12  1  0
  8  9  1  0
  9 10  2  0
 10 11  1  0
 11 12  2  0
M  CHG  1   2   1
M  END
$$$$
