CypD-x0111-pandda-model
     RDKit          3D

 15 16  0  0  0  0  0  0  0  0999 V2000
   -0.0437    2.0557   -1.2771 C   0  0  0  0  0  0  0  0  0  0  0  0
    1.3189    6.7283   -3.7841 N   0  0  0  0  0  0  0  0  0  0  0  0
   -0.1485    3.3118   -1.9211 O   0  0  0  0  0  0  0  0  0  0  0  0
   -0.1315    4.4666   -1.2023 C   0  0  0  0  0  0  0  0  0  0  0  0
    2.9569    8.7116   -4.4579 N   0  0  0  0  0  0  0  0  0  0  0  0
   -0.3704    4.4798    0.1713 C   0  0  0  0  0  0  0  0  0  0  0  0
   -0.3151    5.6666    0.8775 C   0  0  0  0  0  0  0  0  0  0  0  0
   -0.0216    6.8487    0.2269 C   0  0  0  0  0  0  0  0  0  0  0  0
    0.1996    6.8418   -1.1384 C   0  0  0  0  0  0  0  0  0  0  0  0
    0.1422    5.6608   -1.8676 C   0  0  0  0  0  0  0  0  0  0  0  0
    0.3601    5.6844   -3.3825 C   0  0  0  0  0  0  0  0  0  0  0  0
    2.7110    6.4688   -3.3461 C   0  0  0  0  0  0  0  0  0  0  0  0
    3.6360    7.6774   -3.6192 C   0  0  0  0  0  0  0  0  0  0  0  0
    2.2633    8.1298   -5.6496 C   0  0  0  0  0  0  0  0  0  0  0  0
    1.2651    7.0196   -5.2366 C   0  0  0  0  0  0  0  0  0  0  0  0
  1  3  1  0
  2 11  1  0
  2 12  1  0
  2 15  1  0
  3  4  1  0
  4  6  2  0
  4 10  1  0
  5 13  1  0
  5 14  1  0
  6  7  1  0
  7  8  2  0
  8  9  1  0
  9 10  2  0
 10 11  1  0
 12 13  1  0
 14 15  1  0
M  CHG  1   5   1
M  END
$$$$
