CypD-x0884-pandda-model
     RDKit          3D

 15 16  0  0  0  0  0  0  0  0999 V2000
   -1.2859   20.0989    5.7426 C   0  0  0  0  0  0  0  0  0  0  0  0
   -2.9630   16.2310    3.9987 N   0  0  0  0  0  0  0  0  0  0  0  0
   -4.6750   17.3332    4.9294 O   0  0  0  0  0  0  0  0  0  0  0  0
   -1.5084   21.1115    4.8320 C   0  0  0  0  0  0  0  0  0  0  0  0
   -1.8179   13.7491    3.0235 N   0  0  0  0  0  0  0  0  0  0  0  0
   -2.3979   20.8776    3.7992 C   0  0  0  0  0  0  0  0  0  0  0  0
   -3.0408   19.6557    3.6955 C   0  0  0  0  0  0  0  0  0  0  0  0
   -2.8158   18.6322    4.6190 C   0  0  0  0  0  0  0  0  0  0  0  0
   -1.9176   18.8745    5.6568 C   0  0  0  0  0  0  0  0  0  0  0  0
   -3.5291   17.3764    4.5192 C   0  0  0  0  0  0  0  0  0  0  0  0
   -1.5502   16.1916    3.4875 C   0  0  0  0  0  0  0  0  0  0  0  0
   -1.2437   15.0265    2.5229 C   0  0  0  0  0  0  0  0  0  0  0  0
   -3.2903   13.8561    3.1114 C   0  0  0  0  0  0  0  0  0  0  0  0
   -3.6677   14.9128    4.1578 C   0  0  0  0  0  0  0  0  0  0  0  0
   -0.4424   20.3141    6.7159 F   0  0  0  0  0  0  0  0  0  0  0  0
  1  4  2  0
  1  9  1  0
  1 15  1  0
  2 10  1  0
  2 11  1  0
  2 14  1  0
  3 10  2  0
  4  6  1  0
  5 12  1  0
  5 13  1  0
  6  7  2  0
  7  8  1  0
  8  9  2  0
  8 10  1  0
 11 12  1  0
 13 14  1  0
M  CHG  1   5   1
M  END
$$$$
