CypD-x0057-pandda-model
     RDKit          3D

 13 13  0  0  0  0  0  0  0  0999 V2000
   -2.4671   15.6382    2.8334 C   0  0  0  0  0  0  0  0  0  0  0  0
   -1.9698   14.2628    3.1091 N   0  0  0  0  0  0  0  0  0  0  0  0
   -2.6866   11.3974    4.9476 O   0  0  0  0  0  0  0  0  0  0  0  0
   -3.0268   13.3574    3.6678 C   0  0  0  0  0  0  0  0  0  0  0  0
   -2.0221   11.1825    2.8084 N   0  0  0  0  0  0  0  0  0  0  0  0
   -2.5676   11.8932    3.8474 C   0  0  0  0  0  0  0  0  0  0  0  0
   -2.6768   12.4608    0.9758 N   0  0  0  0  0  0  0  0  0  0  0  0
   -1.9717   11.4302    1.4383 C   0  0  0  0  0  0  0  0  0  0  0  0
   -1.1931   10.6246    0.6137 C   0  0  0  0  0  0  0  0  0  0  0  0
   -1.0991   10.8788   -0.7358 C   0  0  0  0  0  0  0  0  0  0  0  0
   -0.2465   10.0185   -1.6488 C   0  0  0  0  0  0  0  0  0  0  0  0
   -1.8064   11.9651   -1.2047 C   0  0  0  0  0  0  0  0  0  0  0  0
   -2.5644   12.7090   -0.3229 C   0  0  0  0  0  0  0  0  0  0  0  0
  1  2  1  0
  2  4  1  0
  3  6  2  0
  4  6  1  0
  5  6  1  0
  5  8  1  0
  7  8  2  0
  7 13  1  0
  8  9  1  0
  9 10  2  0
 10 11  1  0
 10 12  1  0
 12 13  2  0
M  CHG  1   2   1
M  END
$$$$
