CypD-x0625-pandda-model
     RDKit          3D

 10 10  0  0  0  0  0  0  0  0999 V2000
   -0.6862   10.2894    0.2487 O   0  0  0  0  0  0  0  0  0  0  0  0
   -1.4162   11.3401    1.1251 S   0  0  0  0  0  0  0  0  0  0  0  0
   -1.2186   10.6385    2.7021 N   0  0  0  0  0  0  0  0  0  0  0  0
   -2.9380   11.3232    0.9027 O   0  0  0  0  0  0  0  0  0  0  0  0
   -0.7840   10.0079    5.4082 N   0  0  0  0  0  0  0  0  0  0  0  0
   -2.8710   10.6091    5.8837 O   0  0  0  0  0  0  0  0  0  0  0  0
    0.1419   10.7944    3.2187 C   0  0  0  0  0  0  0  0  0  0  0  0
    0.3534    9.9183    4.4626 C   0  0  0  0  0  0  0  0  0  0  0  0
   -1.9702   10.5778    5.0802 C   0  0  0  0  0  0  0  0  0  0  0  0
   -2.1712   11.1771    3.6889 C   0  0  0  0  0  0  0  0  0  0  0  0
  1  2  2  0
  2  3  1  0
  2  4  1  6
  3  7  1  0
  3 10  1  0
  5  8  1  0
  5  9  1  0
  6  9  2  0
  7  8  1  0
  9 10  1  0
M  CHG  1   4  -1
M  END
$$$$
