CypD-x0207-pandda-model
     RDKit          3D

 10 11  0  0  0  0  0  0  0  0999 V2000
   -4.3170    7.5415    4.1154 C   0  0  0  0  0  0  0  0  0  0  0  0
   -3.0979    7.2437    3.5347 N   0  0  0  0  0  0  0  0  0  0  0  0
   -2.9796    6.5593    5.9930 S   0  0  0  0  0  0  0  0  0  0  0  0
   -4.4601    7.2485    5.4136 C   0  0  0  0  0  0  0  0  0  0  0  0
   -0.5875    4.9561    4.2672 N   0  0  0  0  0  0  0  0  0  0  0  0
   -2.2884    6.7055    4.3844 C   0  0  0  0  0  0  0  0  0  0  0  0
    0.6821    4.8884    3.8814 N   0  0  0  0  0  0  0  0  0  0  0  0
   -0.9689    6.2008    4.1575 C   0  0  0  0  0  0  0  0  0  0  0  0
    0.0524    6.9506    3.7364 N   0  0  0  0  0  0  0  0  0  0  0  0
    1.0409    6.0872    3.5683 C   0  0  0  0  0  0  0  0  0  0  0  0
  1  2  1  0
  1  4  2  0
  2  6  2  0
  3  4  1  0
  3  6  1  0
  5  7  1  0
  5  8  2  0
  6  8  1  0
  7 10  2  0
  8  9  1  0
  9 10  1  0
M  END
$$$$
