CypD-x0644-pandda-model
     RDKit          3D

 13 14  0  0  1  0  0  0  0  0999 V2000
   -2.8786   15.0078    2.8679 C   0  0  0  0  0  0  0  0  0  0  0  0
   -1.6258   14.2859    3.2038 N   0  0  0  0  0  0  0  0  0  0  0  0
   -0.3521   15.0012    2.9111 C   0  0  2  0  0  0  0  0  0  0  0  0
    1.2115   13.2595    2.3122 N   0  0  0  0  0  0  0  0  0  0  0  0
   -0.1106   15.0590    1.4089 C   0  0  0  0  0  0  0  0  0  0  0  0
    0.6921   13.8057    1.0410 C   0  0  0  0  0  0  0  0  0  0  0  0
    0.8880   14.2217    3.3886 C   0  0  0  0  0  0  0  0  0  0  0  0
   -2.9856   16.2795    3.6903 C   0  0  0  0  0  0  0  0  0  0  0  0
   -2.6971   17.5122    3.1227 C   0  0  0  0  0  0  0  0  0  0  0  0
   -2.8149   18.6727    3.8671 C   0  0  0  0  0  0  0  0  0  0  0  0
   -3.2110   18.6088    5.1910 C   0  0  0  0  0  0  0  0  0  0  0  0
   -3.5113   17.3860    5.7607 C   0  0  0  0  0  0  0  0  0  0  0  0
   -3.4074   16.2284    5.0094 C   0  0  0  0  0  0  0  0  0  0  0  0
  1  2  1  0
  1  8  1  0
  3  2  1  6
  3  5  1  0
  3  7  1  0
  4  6  1  0
  4  7  1  0
  5  6  1  0
  8  9  2  0
  8 13  1  0
  9 10  1  0
 10 11  2  0
 11 12  1  0
 12 13  2  0
M  CHG  2   2   1   4   1
M  END
$$$$
