CypD-x0131-pandda-model
     RDKit          3D

 17 18  0  0  1  0  0  0  0  0999 V2000
    1.4728   11.2199   -3.3102 C   0  0  0  0  0  0  0  0  0  0  0  0
   -0.0932   12.6792   -0.0366 N   0  0  0  0  0  0  0  0  0  0  0  0
    2.3071   12.0988   -2.5849 O   0  0  0  0  0  0  0  0  0  0  0  0
    1.9037   12.9418   -1.6333 C   0  0  0  0  0  0  0  0  0  0  0  0
    2.7505   13.4790   -0.9623 O   0  0  0  0  0  0  0  0  0  0  0  0
    0.3955   13.1894   -1.3699 C   0  0  2  0  0  0  0  0  0  0  0  0
   -0.5863   16.2128    0.3859 O   0  0  0  0  0  0  0  0  0  0  0  0
    0.0801   14.6934   -1.3367 C   0  0  0  0  0  0  0  0  0  0  0  0
    1.1734   10.8254    0.0489 O   0  0  0  0  0  0  0  0  0  0  0  0
    0.1174   15.0459    0.1399 C   0  0  2  0  0  0  0  0  0  0  0  0
   -1.7417   11.3064    1.9465 O   0  0  0  0  0  0  0  0  0  0  0  0
   -0.4844   13.8259    0.8321 C   0  0  0  0  0  0  0  0  0  0  0  0
    0.2114   11.4384    0.4889 C   0  0  0  0  0  0  0  0  0  0  0  0
   -0.5353   10.8630    1.5878 C   0  0  0  0  0  0  0  0  0  0  0  0
   -0.1902    9.8407    2.4197 C   0  0  0  0  0  0  0  0  0  0  0  0
   -1.2308    9.6927    3.3347 C   0  0  0  0  0  0  0  0  0  0  0  0
   -2.1479   10.6201    2.9904 C   0  0  0  0  0  0  0  0  0  0  0  0
  1  3  1  0
  2  6  1  0
  2 12  1  0
  2 13  1  0
  3  4  1  0
  4  5  2  0
  6  4  1  1
  6  8  1  0
 10  7  1  6
  8 10  1  0
  9 13  2  0
 10 12  1  0
 11 14  1  0
 11 17  1  0
 13 14  1  0
 14 15  2  0
 15 16  1  0
 16 17  2  0
M  END
$$$$
