CypD-x0707-pandda-model
     RDKit          3D

 11 11  0  0  0  0  0  0  0  0999 V2000
   -4.8996    8.5707    3.8104 C   0  0  0  0  0  0  0  0  0  0  0  0
   -3.6582    7.8454    4.1999 N   0  0  0  0  0  0  0  0  0  0  0  0
   -2.2975    9.2817    3.1364 O   0  0  0  0  0  0  0  0  0  0  0  0
   -3.9088    6.5894    4.9572 C   0  0  0  0  0  0  0  0  0  0  0  0
   -0.8971    5.3752    3.3749 O   0  0  0  0  0  0  0  0  0  0  0  0
   -2.4110    8.2934    3.8267 C   0  0  0  0  0  0  0  0  0  0  0  0
   -0.3813    6.9937    2.0583 O   0  0  0  0  0  0  0  0  0  0  0  0
   -1.1385    7.5838    4.2409 C   0  0  0  0  0  0  0  0  0  0  0  0
   -0.0453    8.3921    4.9000 C   0  0  0  0  0  0  0  0  0  0  0  0
   -0.7725    7.3508    5.6870 C   0  0  0  0  0  0  0  0  0  0  0  0
   -0.7828    6.5874    3.1625 C   0  0  0  0  0  0  0  0  0  0  0  0
  1  2  1  0
  2  4  1  0
  2  6  1  0
  3  6  2  0
  5 11  1  0
  6  8  1  0
  7 11  2  0
  8  9  1  0
  8 10  1  0
  8 11  1  0
  9 10  1  0
M  CHG  1   5  -1
M  END
$$$$
