CypD-x0697-pandda-model
     RDKit          3D

 10 10  0  0  0  0  0  0  0  0999 V2000
   -4.2104    7.1455    4.7586 C   0  0  0  0  0  0  0  0  0  0  0  0
   -0.9117   12.4817    1.7786 N   0  0  0  0  0  0  0  0  0  0  0  0
   -2.8429    9.0359    4.1920 O   0  0  0  0  0  0  0  0  0  0  0  0
   -3.6297    8.4747    5.2319 C   0  0  0  0  0  0  0  0  0  0  0  0
   -0.8966   11.2954    1.1331 N   0  0  0  0  0  0  0  0  0  0  0  0
   -2.6171   10.9348    5.2848 O   0  0  0  0  0  0  0  0  0  0  0  0
   -2.4181   10.3077    4.2622 C   0  0  0  0  0  0  0  0  0  0  0  0
   -1.7787   10.8738    3.0998 C   0  0  0  0  0  0  0  0  0  0  0  0
   -1.4355   12.2210    2.9388 C   0  0  0  0  0  0  0  0  0  0  0  0
   -1.3836   10.3214    1.9151 C   0  0  0  0  0  0  0  0  0  0  0  0
  1  4  1  0
  2  5  1  0
  2  9  2  0
  3  4  1  0
  3  7  1  0
  5 10  1  0
  6  7  2  0
  7  8  1  0
  8  9  1  0
  8 10  2  0
M  END
$$$$
