CypD-x0980-pandda-model
     RDKit          3D

 12 13  0  0  1  0  0  0  0  0999 V2000
   -0.4249    9.0011    3.5376 C   0  0  0  0  0  0  0  0  0  0  0  0
   -0.6584   10.1198    4.2670 N   0  0  0  0  0  0  0  0  0  0  0  0
    0.6001    8.7504    2.9403 O   0  0  0  0  0  0  0  0  0  0  0  0
   -1.8620   10.0518    4.8777 C   0  0  0  0  0  0  0  0  0  0  0  0
   -4.6170    7.8388    3.4011 N   0  0  0  0  0  0  0  0  0  0  0  0
   -2.4016   10.9028    5.5391 O   0  0  0  0  0  0  0  0  0  0  0  0
   -2.5103    8.7263    4.5030 C   0  0  1  0  0  0  0  0  0  0  0  0
   -1.4789    8.1522    3.5906 N   0  0  0  0  0  0  0  0  0  0  0  0
   -2.7623    7.7614    5.6738 C   0  0  0  0  0  0  0  0  0  0  0  0
   -3.6139    6.5553    5.2288 C   0  0  0  0  0  0  0  0  0  0  0  0
   -4.9267    6.9780    4.5674 C   0  0  0  0  0  0  0  0  0  0  0  0
   -3.8308    9.0581    3.7773 C   0  0  0  0  0  0  0  0  0  0  0  0
  1  2  1  0
  1  3  2  0
  1  8  1  0
  2  4  1  0
  4  6  2  0
  4  7  1  0
  5 11  1  0
  5 12  1  0
  7  8  1  0
  7  9  1  1
  7 12  1  0
  9 10  1  0
 10 11  1  0
M  CHG  1   5   1
M  END
$$$$
