CypD-x0707-pandda-model
     RDKit          3D

 11 11  0  0  0  0  0  0  0  0999 V2000
   -4.3470    6.6460    4.6180 C   0  0  0  0  0  0  0  0  0  0  0  0
   -3.9740    8.0720    4.4300 N   0  0  0  0  0  0  0  0  0  0  0  0
   -2.5450    9.7490    4.8740 O   0  0  0  0  0  0  0  0  0  0  0  0
   -5.0760    8.9490    3.9670 C   0  0  0  0  0  0  0  0  0  0  0  0
   -1.4230    5.6020    3.4070 O   0  0  0  0  0  0  0  0  0  0  0  0
   -2.7120    8.5680    4.6460 C   0  0  0  0  0  0  0  0  0  0  0  0
   -1.4610    7.4120    2.2670 O   0  0  0  0  0  0  0  0  0  0  0  0
   -1.5040    7.6470    4.6460 C   0  0  0  0  0  0  0  0  0  0  0  0
   -0.2110    8.0900    5.2920 C   0  0  0  0  0  0  0  0  0  0  0  0
   -1.0420    7.0280    5.9350 C   0  0  0  0  0  0  0  0  0  0  0  0
   -1.4620    6.8390    3.3670 C   0  0  0  0  0  0  0  0  0  0  0  0
  1  2  1  0
  2  4  1  0
  2  6  1  0
  3  6  2  0
  5 11  1  0
  6  8  1  0
  7 11  2  0
  8  9  1  0
  8 10  1  0
  8 11  1  0
  9 10  1  0
M  CHG  1   5  -1
M  END
$$$$
