CypD-x0558-pandda-model
     RDKit          3D

 15 16  0  0  0  0  0  0  0  0999 V2000
   -4.1200    7.4960    5.6450 C   0  0  0  0  0  0  0  0  0  0  0  0
   -2.1200    9.5400    4.0980 N   0  0  0  0  0  0  0  0  0  0  0  0
   -2.8640   10.5400    5.9330 O   0  0  0  0  0  0  0  0  0  0  0  0
   -4.3100    8.8970    5.0450 C   0  0  0  0  0  0  0  0  0  0  0  0
   -2.3040   11.4550    1.6630 N   0  0  0  0  0  0  0  0  0  0  0  0
   -3.0440    9.7300    5.0610 C   0  0  0  0  0  0  0  0  0  0  0  0
   -2.1270   11.3270    0.3030 N   0  0  0  0  0  0  0  0  0  0  0  0
   -1.1570   10.5960    3.6750 C   0  0  0  0  0  0  0  0  0  0  0  0
   -0.4660   10.2940    1.2330 N   0  0  0  0  0  0  0  0  0  0  0  0
   -1.3240   10.8280    2.1830 C   0  0  0  0  0  0  0  0  0  0  0  0
   -0.9910   10.6130    0.0090 C   0  0  0  0  0  0  0  0  0  0  0  0
   -0.4510   10.2450   -1.1650 C   0  0  0  0  0  0  0  0  0  0  0  0
    0.8460    9.4510   -1.2210 C   0  0  0  0  0  0  0  0  0  0  0  0
    1.6080    9.5590    0.1170 C   0  0  0  0  0  0  0  0  0  0  0  0
    0.7070    9.4030    1.3560 C   0  0  0  0  0  0  0  0  0  0  0  0
  1  4  1  0
  2  6  1  0
  2  8  1  0
  3  6  2  0
  4  6  1  0
  5  7  1  0
  5 10  2  0
  7 11  1  0
  8 10  1  0
  9 10  1  0
  9 11  1  0
  9 15  1  0
 11 12  2  0
 12 13  1  0
 13 14  1  0
 14 15  1  0
M  END
$$$$
