CypD-x0503-pandda-model
     RDKit          3D

 14 14  0  0  0  0  0  0  0  0999 V2000
    0.9390    5.5390    2.3590 C   0  0  0  0  0  0  0  0  0  0  0  0
   -0.1040    5.8270    3.3890 N   0  0  0  0  0  0  0  0  0  0  0  0
    0.9370    8.4030    4.3710 O   0  0  0  0  0  0  0  0  0  0  0  0
    0.5230    6.0330    4.7640 C   0  0  0  0  0  0  0  0  0  0  0  0
   -2.1410    7.1250    5.2160 N   0  0  0  0  0  0  0  0  0  0  0  0
    1.5330    7.5960    6.2590 O   0  0  0  0  0  0  0  0  0  0  0  0
    1.0130    7.4380    5.1460 C   0  0  0  0  0  0  0  0  0  0  0  0
   -1.6260    6.2760    1.8230 O   0  0  0  0  0  0  0  0  0  0  0  0
   -1.3590    6.3200    3.0210 C   0  0  0  0  0  0  0  0  0  0  0  0
   -2.3950    6.8670    3.9240 C   0  0  0  0  0  0  0  0  0  0  0  0
   -3.6650    7.1380    3.3980 C   0  0  0  0  0  0  0  0  0  0  0  0
   -4.6290    7.7890    4.1310 C   0  0  0  0  0  0  0  0  0  0  0  0
   -4.2930    8.1270    5.4180 C   0  0  0  0  0  0  0  0  0  0  0  0
   -3.0620    7.7510    5.9160 C   0  0  0  0  0  0  0  0  0  0  0  0
  1  2  1  0
  2  4  1  0
  2  9  1  0
  3  7  1  0
  4  7  1  0
  5 10  2  0
  5 14  1  0
  6  7  2  0
  8  9  2  0
  9 10  1  0
 10 11  1  0
 11 12  2  0
 12 13  1  0
 13 14  2  0
M  CHG  1   3  -1
M  END
$$$$
