CypD-x0523-pandda-model
     RDKit          3D

 15 15  0  0  0  0  0  0  0  0999 V2000
   -3.7113   15.0381    4.0513 C   0  0  0  0  0  0  0  0  0  0  0  0
   -2.6493   12.9778    3.3798 N   0  0  0  0  0  0  0  0  0  0  0  0
   -2.0340   10.6495    5.2921 O   0  0  0  0  0  0  0  0  0  0  0  0
   -2.9569   14.3462    2.9245 C   0  0  0  0  0  0  0  0  0  0  0  0
   -2.4174   12.1230    1.2695 N   0  0  0  0  0  0  0  0  0  0  0  0
   -1.6553   15.0811    2.6182 C   0  0  0  0  0  0  0  0  0  0  0  0
    0.1886   10.6201    4.9543 N   0  0  0  0  0  0  0  0  0  0  0  0
   -2.1393   11.9892    2.5683 C   0  0  0  0  0  0  0  0  0  0  0  0
   -1.8120   11.2883    0.4460 C   0  0  0  0  0  0  0  0  0  0  0  0
   -0.9632   10.2737    0.8431 C   0  0  0  0  0  0  0  0  0  0  0  0
   -0.7376   10.0847    2.1849 C   0  0  0  0  0  0  0  0  0  0  0  0
   -1.3444   10.9480    3.0891 C   0  0  0  0  0  0  0  0  0  0  0  0
   -1.1083   10.7536    4.4988 C   0  0  0  0  0  0  0  0  0  0  0  0
    1.2899   11.4412    4.3879 C   0  0  0  0  0  0  0  0  0  0  0  0
    0.5389    9.9177    6.2061 C   0  0  0  0  0  0  0  0  0  0  0  0
  1  4  1  0
  2  4  1  0
  2  8  1  0
  3 13  2  0
  4  6  1  0
  5  8  2  0
  5  9  1  0
  7 13  1  0
  7 14  1  0
  7 15  1  0
  8 12  1  0
  9 10  2  0
 10 11  1  0
 11 12  2  0
 12 13  1  0
M  END
$$$$
