CypD-x0071-pandda-model
     RDKit          3D

 13 13  0  0  1  0  0  0  0  0999 V2000
    0.2550   11.3340    1.3340 C   0  0  0  0  0  0  0  0  0  0  0  0
   -2.6580   10.3880    5.0190 N   0  0  0  0  0  0  0  0  0  0  0  0
   -3.3120   11.5030    2.9260 O   0  0  0  0  0  0  0  0  0  0  0  0
   -2.2020   10.7650    3.4700 S   0  0  0  0  0  0  0  0  0  0  0  0
   -0.2960   12.4030    2.2910 C   0  0  1  0  0  0  0  0  0  0  0  0
   -1.8690    9.4910    2.8720 O   0  0  0  0  0  0  0  0  0  0  0  0
   -0.7740   11.8280    3.6320 C   0  0  0  0  0  0  0  0  0  0  0  0
    0.7670   13.4720    2.5290 C   0  0  0  0  0  0  0  0  0  0  0  0
    1.9870   13.1580    3.1140 C   0  0  0  0  0  0  0  0  0  0  0  0
    2.9510   14.1340    3.2950 C   0  0  0  0  0  0  0  0  0  0  0  0
    2.7030   15.4340    2.8960 C   0  0  0  0  0  0  0  0  0  0  0  0
    1.4870   15.7590    2.3230 C   0  0  0  0  0  0  0  0  0  0  0  0
    0.5240   14.7810    2.1410 C   0  0  0  0  0  0  0  0  0  0  0  0
  5  1  1  6
  2  4  1  0
  3  4  2  0
  4  6  2  0
  4  7  1  0
  5  7  1  0
  5  8  1  0
  8  9  2  0
  8 13  1  0
  9 10  1  0
 10 11  2  0
 11 12  1  0
 12 13  2  0
M  END
$$$$
