CypD-x0036-pandda-model
     RDKit          3D

 13 13  0  0  0  0  0  0  0  0999 V2000
   -1.9005   11.2921   -6.8900 C   0  0  0  0  0  0  0  0  0  0  0  0
   -1.9278   10.9298   -5.4533 N   0  0  0  0  0  0  0  0  0  0  0  0
    0.1163   10.0660   -5.3000 O   0  0  0  0  0  0  0  0  0  0  0  0
   -0.8083   10.6123   -4.7182 C   0  0  0  0  0  0  0  0  0  0  0  0
   -1.8941   11.3738   -2.7426 N   0  0  0  0  0  0  0  0  0  0  0  0
   -3.2498   12.6409    0.3023 O   0  0  0  0  0  0  0  0  0  0  0  0
   -0.7711   10.9074   -3.2841 C   0  0  0  0  0  0  0  0  0  0  0  0
   -4.1404   12.5535   -1.6150 O   0  0  0  0  0  0  0  0  0  0  0  0
    0.3744   10.7225   -2.5134 C   0  0  0  0  0  0  0  0  0  0  0  0
    0.3732   11.0376   -1.1724 C   0  0  0  0  0  0  0  0  0  0  0  0
   -0.7935   11.5447   -0.6461 C   0  0  0  0  0  0  0  0  0  0  0  0
   -1.9185   11.7290   -1.4499 C   0  0  0  0  0  0  0  0  0  0  0  0
   -3.1409   12.3285   -0.8952 C   0  0  0  0  0  0  0  0  0  0  0  0
  1  2  1  0
  2  4  1  0
  3  4  2  0
  4  7  1  0
  5  7  2  0
  5 12  1  0
  6 13  1  0
  7  9  1  0
  8 13  2  0
  9 10  2  0
 10 11  1  0
 11 12  2  0
 12 13  1  0
M  CHG  1   6  -1
M  END
$$$$
