CypD-x0059-pandda-model
     RDKit          3D

 15 16  0  0  1  0  0  0  0  0999 V2000
   -3.1271    7.3946    5.0819 C   0  0  0  0  0  0  0  0  0  0  0  0
   -2.6545    9.8032    3.0664 N   0  0  0  0  0  0  0  0  0  0  0  0
   -0.6325   10.8314    3.2762 O   0  0  0  0  0  0  0  0  0  0  0  0
   -3.9428    7.8184    3.8564 C   0  0  2  0  0  0  0  0  0  0  0  0
   -3.4256    7.1328    2.7181 O   0  0  0  0  0  0  0  0  0  0  0  0
   -3.9510    9.3469    3.6527 C   0  0  0  0  0  0  0  0  0  0  0  0
   -1.6994   10.5220    3.7580 C   0  0  0  0  0  0  0  0  0  0  0  0
   -1.9381   10.9328    5.1871 C   0  0  0  0  0  0  0  0  0  0  0  0
   -2.3744    9.1342    1.8628 C   0  0  0  0  0  0  0  0  0  0  0  0
   -1.7400    9.7701    0.7971 C   0  0  0  0  0  0  0  0  0  0  0  0
   -1.3993    9.0833   -0.3569 C   0  0  0  0  0  0  0  0  0  0  0  0
   -1.7225    7.7433   -0.4762 C   0  0  0  0  0  0  0  0  0  0  0  0
   -2.3949    7.1302    0.5626 C   0  0  0  0  0  0  0  0  0  0  0  0
   -2.7371    7.7913    1.7321 C   0  0  0  0  0  0  0  0  0  0  0  0
   -2.7311    5.8779    0.4064 F   0  0  0  0  0  0  0  0  0  0  0  0
  4  1  1  1
  2  6  1  0
  2  7  1  0
  2  9  1  0
  3  7  2  0
  4  5  1  0
  4  6  1  0
  5 14  1  0
  7  8  1  0
  9 10  2  0
  9 14  1  0
 10 11  1  0
 11 12  2  0
 12 13  1  0
 13 14  2  0
 13 15  1  0
M  END
$$$$
