CypD-x0950-pandda-model
     RDKit          3D

 11 12  0  0  0  0  0  0  0  0999 V2000
   -2.1860   12.0950    4.2900 C   0  0  0  0  0  0  0  0  0  0  0  0
   -2.3260   11.2820    5.0850 N   0  0  0  0  0  0  0  0  0  0  0  0
   -2.1040   13.1550    3.3190 C   0  0  0  0  0  0  0  0  0  0  0  0
   -3.1140   13.6120    2.6260 N   0  0  0  0  0  0  0  0  0  0  0  0
   -1.2880   14.8260    2.1230 C   0  0  0  0  0  0  0  0  0  0  0  0
   -2.6180   14.6500    1.9070 N   0  0  0  0  0  0  0  0  0  0  0  0
   -0.3700   15.7440    1.6060 C   0  0  0  0  0  0  0  0  0  0  0  0
    0.9410   15.6570    2.0060 C   0  0  0  0  0  0  0  0  0  0  0  0
    1.3420   14.6660    2.9130 C   0  0  0  0  0  0  0  0  0  0  0  0
    0.4300   13.7730    3.4240 C   0  0  0  0  0  0  0  0  0  0  0  0
   -0.9140   13.8560    3.0280 C   0  0  0  0  0  0  0  0  0  0  0  0
  1  2  3  0
  1  3  1  0
  3  4  2  0
  3 11  1  0
  4  6  1  0
  5  6  1  0
  5  7  1  0
  5 11  2  0
  7  8  2  0
  8  9  1  0
  9 10  2  0
 10 11  1  0
M  END
$$$$
