CypD-x0460-pandda-model
     RDKit          3D

 15 15  0  0  1  0  0  0  0  0999 V2000
   -2.2416   10.6694    2.3379 C   0  0  0  0  0  0  0  0  0  0  0  0
    0.1524   11.1604    5.3371 N   0  0  0  0  0  0  0  0  0  0  0  0
    2.1721   11.8371    5.9470 O   0  0  0  0  0  0  0  0  0  0  0  0
   -1.0821   11.2043    3.2011 C   0  0  0  0  0  0  0  0  0  0  0  0
   -2.8103    8.9539    5.2422 N   0  0  0  0  0  0  0  0  0  0  0  0
   -2.6066   11.0403    6.0431 O   0  0  0  0  0  0  0  0  0  0  0  0
    0.1638   11.2824    2.2975 C   0  0  0  0  0  0  0  0  0  0  0  0
   -0.8335   10.4256    4.5254 C   0  0  2  0  0  0  0  0  0  0  0  0
    1.4593   10.9731    5.4572 C   0  0  0  0  0  0  0  0  0  0  0  0
    2.0822    9.6817    4.9705 C   0  0  0  0  0  0  0  0  0  0  0  0
   -2.1538   10.1600    5.3133 C   0  0  0  0  0  0  0  0  0  0  0  0
   -4.1992    8.7984    5.7534 C   0  0  0  0  0  0  0  0  0  0  0  0
   -4.6795    7.4485    5.2315 C   0  0  0  0  0  0  0  0  0  0  0  0
   -3.7811    7.1483    4.0385 C   0  0  0  0  0  0  0  0  0  0  0  0
   -2.4487    7.7871    4.4028 C   0  0  0  0  0  0  0  0  0  0  0  0
  1  4  1  0
  8  2  1  1
  2  9  1  0
  3  9  2  0
  4  7  1  0
  4  8  1  0
  5 11  1  0
  5 12  1  0
  5 15  1  0
  6 11  2  0
  8 11  1  0
  9 10  1  0
 12 13  1  0
 13 14  1  0
 14 15  1  0
M  END
$$$$
