CypD-x0869-pandda-model
     RDKit          3D

 15 16  0  0  1  0  0  0  0  0999 V2000
   -1.2790   17.4780    5.9580 C   0  0  0  0  0  0  0  0  0  0  0  0
   -1.7960   16.6240    4.8800 N   0  0  0  0  0  0  0  0  0  0  0  0
   -3.1940   13.2160    2.4030 O   0  0  0  0  0  0  0  0  0  0  0  0
   -2.3180   17.0560    3.7200 C   0  0  0  0  0  0  0  0  0  0  0  0
   -1.8250   15.2870    4.9610 N   0  0  0  0  0  0  0  0  0  0  0  0
   -2.9100   10.2490    5.7350 O   0  0  0  0  0  0  0  0  0  0  0  0
   -2.6810   15.9660    3.0220 C   0  0  0  0  0  0  0  0  0  0  0  0
   -1.9470   12.4480    4.0660 N   0  0  0  0  0  0  0  0  0  0  0  0
   -2.3440   14.8660    3.8200 C   0  0  0  0  0  0  0  0  0  0  0  0
   -2.5320   13.4850    3.3960 C   0  0  0  0  0  0  0  0  0  0  0  0
   -1.9900   11.0190    3.6530 C   0  0  0  0  0  0  0  0  0  0  0  0
   -1.8530   10.0490    4.8390 C   0  0  2  0  0  0  0  0  0  0  0  0
   -1.9500    8.5900    4.4030 C   0  0  0  0  0  0  0  0  0  0  0  0
   -3.4230    8.2810    4.5670 C   0  0  0  0  0  0  0  0  0  0  0  0
   -3.8180    9.1800    5.7240 C   0  0  0  0  0  0  0  0  0  0  0  0
  1  2  1  0
  2  4  1  0
  2  5  1  0
  3 10  2  0
  4  7  2  0
  5  9  2  0
  6 12  1  0
  6 15  1  0
  7  9  1  0
  8 10  1  0
  8 11  1  0
  9 10  1  0
 12 11  1  6
 12 13  1  0
 13 14  1  0
 14 15  1  0
M  END
$$$$
