CypD-x0402-pandda-model
     RDKit          3D

 14 14  0  0  0  0  0  0  0  0999 V2000
   -3.9474   -2.1766   -0.4779 C   0  0  0  0  0  0  0  0  0  0  0  0
   -2.5754   -0.4558    0.5611 N   0  0  0  0  0  0  0  0  0  0  0  0
   -2.5945   -0.7115   -1.7061 O   0  0  0  0  0  0  0  0  0  0  0  0
   -2.9687   -1.0368   -0.6057 C   0  0  0  0  0  0  0  0  0  0  0  0
   -0.4148    4.0593   -1.3551 O   0  0  0  0  0  0  0  0  0  0  0  0
   -1.6149    0.5157    0.8772 C   0  0  0  0  0  0  0  0  0  0  0  0
   -0.2583    5.0272    0.5311 O   0  0  0  0  0  0  0  0  0  0  0  0
   -0.8933    0.3169    2.0476 C   0  0  0  0  0  0  0  0  0  0  0  0
    0.0225    1.2541    2.4760 C   0  0  0  0  0  0  0  0  0  0  0  0
    0.1911    2.4041    1.7353 C   0  0  0  0  0  0  0  0  0  0  0  0
   -0.5171    2.6804    0.5679 C   0  0  0  0  0  0  0  0  0  0  0  0
   -1.3960    1.6767    0.1341 C   0  0  0  0  0  0  0  0  0  0  0  0
   -0.3716    3.9552   -0.1095 C   0  0  0  0  0  0  0  0  0  0  0  0
    1.0782    3.2512    2.1798 F   0  0  0  0  0  0  0  0  0  0  0  0
  1  4  1  0
  2  4  1  0
  2  6  1  0
  3  4  2  0
  5 13  1  0
  6  8  2  0
  6 12  1  0
  7 13  2  0
  8  9  1  0
  9 10  2  0
 10 11  1  0
 10 14  1  0
 11 12  2  0
 11 13  1  0
M  CHG  1   5  -1
M  END
$$$$
