CypD-x0505-pandda-model
     RDKit          3D

 14 14  0  0  0  0  0  0  0  0999 V2000
   -4.4570    8.4150    4.8000 C   0  0  0  0  0  0  0  0  0  0  0  0
   -1.4470   12.0720    3.8430 N   0  0  0  0  0  0  0  0  0  0  0  0
   -3.3660    8.9900    4.1040 O   0  0  0  0  0  0  0  0  0  0  0  0
   -2.6600    9.9970    4.6090 C   0  0  0  0  0  0  0  0  0  0  0  0
   -1.8290   14.8280    4.7060 N   0  0  0  0  0  0  0  0  0  0  0  0
   -2.8590   10.4250    5.7200 O   0  0  0  0  0  0  0  0  0  0  0  0
   -1.5820   10.5890    3.7040 C   0  0  0  0  0  0  0  0  0  0  0  0
   -2.7210   12.6000    2.1060 O   0  0  0  0  0  0  0  0  0  0  0  0
   -2.1400   12.9910    3.1080 C   0  0  0  0  0  0  0  0  0  0  0  0
   -1.9920   16.1270    4.7620 O   0  0  0  0  0  0  0  0  0  0  0  0
   -2.1890   14.3770    3.5400 C   0  0  0  0  0  0  0  0  0  0  0  0
   -2.6210   15.4490    2.7770 C   0  0  0  0  0  0  0  0  0  0  0  0
   -2.4610   16.4960    3.5900 C   0  0  0  0  0  0  0  0  0  0  0  0
   -2.7280   17.9670    3.3440 C   0  0  0  0  0  0  0  0  0  0  0  0
  1  3  1  0
  2  7  1  0
  2  9  1  0
  3  4  1  0
  4  6  2  0
  4  7  1  0
  5 10  1  0
  5 11  2  0
  8  9  2  0
  9 11  1  0
 10 13  1  0
 11 12  1  0
 12 13  2  0
 13 14  1  0
M  END
$$$$
