CypD-x0947-pandda-model
     RDKit          3D

 13 14  0  0  0  0  0  0  0  0999 V2000
   -1.3988   14.1041   -1.8042 C   0  0  0  0  0  0  0  0  0  0  0  0
   -3.4198   12.8731   -3.1661 N   0  0  0  0  0  0  0  0  0  0  0  0
   -2.0956   11.5039   -1.6246 O   0  0  0  0  0  0  0  0  0  0  0  0
   -2.6751   12.8213   -1.6831 S   0  0  0  0  0  0  0  0  0  0  0  0
   -1.3305   15.1412   -0.8700 C   0  0  0  0  0  0  0  0  0  0  0  0
    1.4032   17.1922   -2.3281 N   0  0  0  0  0  0  0  0  0  0  0  0
   -3.7458   13.1492   -0.7690 O   0  0  0  0  0  0  0  0  0  0  0  0
    1.7058   15.3671   -4.1120 S   0  0  0  0  0  0  0  0  0  0  0  0
   -0.4226   16.1837   -0.9892 C   0  0  0  0  0  0  0  0  0  0  0  0
    0.4698   16.1963   -2.0491 C   0  0  0  0  0  0  0  0  0  0  0  0
    2.1032   16.9023   -3.3498 C   0  0  0  0  0  0  0  0  0  0  0  0
    0.4405   15.1302   -2.9263 C   0  0  0  0  0  0  0  0  0  0  0  0
   -0.4718   14.0943   -2.8402 C   0  0  0  0  0  0  0  0  0  0  0  0
  1  4  1  0
  1  5  2  0
  1 13  1  0
  2  4  1  0
  3  4  2  0
  4  7  2  0
  5  9  1  0
  6 10  1  0
  6 11  2  0
  8 11  1  0
  8 12  1  0
  9 10  2  0
 10 12  1  0
 12 13  2  0
M  END
$$$$
