CypD-x0216-pandda-model
     RDKit          3D

 15 16  0  0  0  0  0  0  0  0999 V2000
   -1.1798   10.4584   -2.6575 C   0  0  0  0  0  0  0  0  0  0  0  0
    1.0638   11.2501   -2.2335 N   0  0  0  0  0  0  0  0  0  0  0  0
   -2.4582   10.8275    0.2035 O   0  0  0  0  0  0  0  0  0  0  0  0
    1.3129   11.5372    0.2792 S   0  0  0  0  0  0  0  0  0  0  0  0
   -0.1272   10.8762   -1.6546 C   0  0  0  0  0  0  0  0  0  0  0  0
   -1.1990   10.3201    1.9485 N   0  0  0  0  0  0  0  0  0  0  0  0
   -2.7912   11.0858    5.1830 O   0  0  0  0  0  0  0  0  0  0  0  0
    1.9023   11.6185   -1.3567 C   0  0  0  0  0  0  0  0  0  0  0  0
   -0.6342   10.9951    4.6580 N   0  0  0  0  0  0  0  0  0  0  0  0
   -0.2303   10.9369   -0.3000 C   0  0  0  0  0  0  0  0  0  0  0  0
   -1.3229   10.6898    0.6206 C   0  0  0  0  0  0  0  0  0  0  0  0
    0.0046    9.7401    2.6043 C   0  0  0  0  0  0  0  0  0  0  0  0
    0.4869   10.6556    3.7431 C   0  0  0  0  0  0  0  0  0  0  0  0
   -1.9471   10.8729    4.3426 C   0  0  0  0  0  0  0  0  0  0  0  0
   -2.3572   10.4571    2.9167 C   0  0  0  0  0  0  0  0  0  0  0  0
  1  5  1  0
  2  5  1  0
  2  8  2  0
  3 11  2  0
  4  8  1  0
  4 10  1  0
  5 10  2  0
  6 11  1  0
  6 12  1  0
  6 15  1  0
  7 14  2  0
  9 13  1  0
  9 14  1  0
 10 11  1  0
 12 13  1  0
 14 15  1  0
M  END
$$$$
