CypD-x0881-pandda-model
     RDKit          3D

 13 13  0  0  1  0  0  0  0  0999 V2000
   -0.5200   11.8770    1.7120 C   0  0  0  0  0  0  0  0  0  0  0  0
   -1.9680   12.8790    4.1260 N   0  0  0  0  0  0  0  0  0  0  0  0
   -2.5230   10.7580    5.8300 O   0  0  0  0  0  0  0  0  0  0  0  0
   -0.9330   11.0030    2.9090 C   0  0  0  0  0  0  0  0  0  0  0  0
   -3.4460    9.3890    4.3140 N   0  0  0  0  0  0  0  0  0  0  0  0
   -3.3850    6.6560    3.5820 O   0  0  0  0  0  0  0  0  0  0  0  0
    0.2600   10.8580    3.8700 C   0  0  0  0  0  0  0  0  0  0  0  0
   -2.2210   11.5260    3.5970 C   0  0  1  0  0  0  0  0  0  0  0  0
   -2.7520   10.5240    4.6630 C   0  0  0  0  0  0  0  0  0  0  0  0
   -3.7450    8.9470    2.9260 C   0  0  0  0  0  0  0  0  0  0  0  0
   -3.0140    7.6270    2.6460 C   0  0  0  0  0  0  0  0  0  0  0  0
   -3.1360    7.0050    4.9230 C   0  0  0  0  0  0  0  0  0  0  0  0
   -3.8160    8.3320    5.3020 C   0  0  0  0  0  0  0  0  0  0  0  0
  1  4  1  0
  8  2  1  1
  3  9  2  0
  4  7  1  0
  4  8  1  0
  5  9  1  0
  5 10  1  0
  5 13  1  0
  6 11  1  0
  6 12  1  0
  8  9  1  0
 10 11  1  0
 12 13  1  0
M  END
$$$$
