CypD-x0120-pandda-model
     RDKit          3D

 11 11  0  0  0  0  0  0  0  0999 V2000
   -4.7164    9.5537    4.1227 C   0  0  0  0  0  0  0  0  0  0  0  0
   -3.7974    8.4007    4.2998 N   0  0  0  0  0  0  0  0  0  0  0  0
   -1.9254    9.5559    3.7724 O   0  0  0  0  0  0  0  0  0  0  0  0
   -4.4817    7.1375    4.6974 C   0  0  0  0  0  0  0  0  0  0  0  0
   -1.8452    6.5350    2.4262 O   0  0  0  0  0  0  0  0  0  0  0  0
   -2.4349    8.5309    4.1760 C   0  0  0  0  0  0  0  0  0  0  0  0
   -0.3274    5.6200    3.6008 O   0  0  0  0  0  0  0  0  0  0  0  0
   -1.5074    7.4299    4.6298 C   0  0  0  0  0  0  0  0  0  0  0  0
   -0.4357    7.7591    5.6433 C   0  0  0  0  0  0  0  0  0  0  0  0
   -1.6033    6.9158    6.0404 C   0  0  0  0  0  0  0  0  0  0  0  0
   -1.2165    6.4821    3.4861 C   0  0  0  0  0  0  0  0  0  0  0  0
  1  2  1  0
  2  4  1  0
  2  6  1  0
  3  6  2  0
  5 11  1  0
  6  8  1  0
  7 11  2  0
  8  9  1  0
  8 10  1  0
  8 11  1  0
  9 10  1  0
M  CHG  1   5  -1
M  END
$$$$
