CypD-x0124-pandda-model
     RDKit          3D

 11 11  0  0  0  0  0  0  0  0999 V2000
   -3.3636   15.3601    4.2167 C   0  0  0  0  0  0  0  0  0  0  0  0
   -2.0881   15.3245    2.1621 N   0  0  0  0  0  0  0  0  0  0  0  0
   -3.0990   14.5905    2.9372 C   0  0  0  0  0  0  0  0  0  0  0  0
    3.4326   12.3288    0.0837 N   0  0  0  0  0  0  0  0  0  0  0  0
   -0.9349   14.7226    1.7874 C   0  0  0  0  0  0  0  0  0  0  0  0
   -0.8053   14.5389    0.4866 N   0  0  0  0  0  0  0  0  0  0  0  0
    0.0160   14.3440    2.7282 C   0  0  0  0  0  0  0  0  0  0  0  0
    1.1824   13.7504    2.3169 C   0  0  0  0  0  0  0  0  0  0  0  0
    1.3395   13.5366    0.9547 C   0  0  0  0  0  0  0  0  0  0  0  0
    2.5009   12.8830    0.4447 C   0  0  0  0  0  0  0  0  0  0  0  0
    0.3221   13.9577    0.1064 C   0  0  0  0  0  0  0  0  0  0  0  0
  1  3  1  0
  2  3  1  0
  2  5  1  0
  4 10  3  0
  5  6  2  0
  5  7  1  0
  6 11  1  0
  7  8  2  0
  8  9  1  0
  9 10  1  0
  9 11  2  0
M  END
$$$$
