CypD-x0303-pandda-model
     RDKit          3D

 15 16  0  0  1  0  0  0  0  0999 V2000
   -4.9014    7.0298    4.8766 C   0  0  0  0  0  0  0  0  0  0  0  0
   -2.1003   11.7366    3.6610 N   0  0  0  0  0  0  0  0  0  0  0  0
   -2.6614   12.2567    1.5036 O   0  0  0  0  0  0  0  0  0  0  0  0
   -4.1204    8.3041    4.6013 C   0  0  0  0  0  0  0  0  0  0  0  0
   -3.4802    9.9780    3.0014 N   0  0  0  0  0  0  0  0  0  0  0  0
   -0.0285   13.4500    1.4346 O   0  0  0  0  0  0  0  0  0  0  0  0
   -3.3781    8.9102    5.5925 C   0  0  0  0  0  0  0  0  0  0  0  0
   -2.6966   10.0560    5.2502 C   0  0  0  0  0  0  0  0  0  0  0  0
   -2.7821   10.5667    3.9590 C   0  0  0  0  0  0  0  0  0  0  0  0
   -1.9958   12.4631    2.5013 C   0  0  0  0  0  0  0  0  0  0  0  0
   -0.9499   13.5924    2.4946 C   0  0  2  0  0  0  0  0  0  0  0  0
   -1.5225   15.0035    2.3845 C   0  0  0  0  0  0  0  0  0  0  0  0
   -0.4585   15.7286    1.5857 C   0  0  0  0  0  0  0  0  0  0  0  0
    0.0616   14.6237    0.6863 C   0  0  0  0  0  0  0  0  0  0  0  0
   -4.1325    8.8784    3.3417 C   0  0  0  0  0  0  0  0  0  0  0  0
  1  4  1  0
  2  9  1  0
  2 10  1  0
  3 10  2  0
  4  7  2  0
  4 15  1  0
  5  9  1  0
  5 15  2  0
  6 11  1  0
  6 14  1  0
  7  8  1  0
  8  9  2  0
 11 10  1  6
 11 12  1  0
 12 13  1  0
 13 14  1  0
M  END
$$$$
