CypD-x0362-pandda-model
     RDKit          3D

 17 18  0  0  0  0  0  0  0  0999 V2000
   -0.2525    4.4899   -1.5830 C   0  0  0  0  0  0  0  0  0  0  0  0
   -0.7113    5.5116   -1.0483 O   0  0  0  0  0  0  0  0  0  0  0  0
    0.1261    3.3310   -0.7939 C   0  0  0  0  0  0  0  0  0  0  0  0
   -0.1643    4.5391   -2.8275 O   0  0  0  0  0  0  0  0  0  0  0  0
    0.0508    3.3592    0.6011 C   0  0  0  0  0  0  0  0  0  0  0  0
    1.1560   -0.0306    1.4390 O   0  0  0  0  0  0  0  0  0  0  0  0
    0.3889    2.2642    1.3736 C   0  0  0  0  0  0  0  0  0  0  0  0
    0.8250    1.0935    0.7649 C   0  0  0  0  0  0  0  0  0  0  0  0
    0.8492   -0.1911    2.8037 C   0  0  0  0  0  0  0  0  0  0  0  0
    0.8980   -1.6830    3.1027 C   0  0  0  0  0  0  0  0  0  0  0  0
    2.1180   -2.3305    3.2241 C   0  0  0  0  0  0  0  0  0  0  0  0
    2.1682   -3.6978    3.4341 C   0  0  0  0  0  0  0  0  0  0  0  0
    0.9950   -4.4302    3.5219 C   0  0  0  0  0  0  0  0  0  0  0  0
   -0.2263   -3.7891    3.4036 C   0  0  0  0  0  0  0  0  0  0  0  0
   -0.2752   -2.4202    3.1966 C   0  0  0  0  0  0  0  0  0  0  0  0
    0.9255    1.0501   -0.6147 C   0  0  0  0  0  0  0  0  0  0  0  0
    0.5776    2.1467   -1.3798 C   0  0  0  0  0  0  0  0  0  0  0  0
  1  2  1  0
  1  3  1  0
  1  4  2  0
  3  5  2  0
  3 17  1  0
  5  7  1  0
  6  8  1  0
  6  9  1  0
  7  8  2  0
  8 16  1  0
  9 10  1  0
 10 11  2  0
 10 15  1  0
 11 12  1  0
 12 13  2  0
 13 14  1  0
 14 15  2  0
 16 17  2  0
M  CHG  1   2  -1
M  END
$$$$
