CypD-x0351-pandda-model
     RDKit          3D

 13 13  0  0  0  0  0  0  0  0999 V2000
   -4.8489    7.3555    4.4228 C   0  0  0  0  0  0  0  0  0  0  0  0
   -3.5995    8.0181    4.8314 N   0  0  0  0  0  0  0  0  0  0  0  0
   -4.9929   10.1021    4.2215 O   0  0  0  0  0  0  0  0  0  0  0  0
   -3.6997    9.7096    4.7266 S   0  0  0  0  0  0  0  0  0  0  0  0
   -3.2136    7.5585    6.1777 C   0  0  0  0  0  0  0  0  0  0  0  0
   -2.5681    9.8835    3.4872 N   0  0  0  0  0  0  0  0  0  0  0  0
   -3.1300   10.3449    5.8955 O   0  0  0  0  0  0  0  0  0  0  0  0
   -2.7603   11.1613    2.7759 C   0  0  0  0  0  0  0  0  0  0  0  0
   -0.3540   11.1432    2.0085 N   0  0  0  0  0  0  0  0  0  0  0  0
   -1.7880   11.3154    1.5910 C   0  0  0  0  0  0  0  0  0  0  0  0
    0.5560   11.1704    0.8315 C   0  0  0  0  0  0  0  0  0  0  0  0
   -0.1528    9.9114    2.8465 C   0  0  0  0  0  0  0  0  0  0  0  0
   -1.1784    9.8106    3.9913 C   0  0  0  0  0  0  0  0  0  0  0  0
  1  2  1  0
  2  4  1  0
  2  5  1  0
  3  4  2  0
  4  6  1  0
  4  7  2  0
  6  8  1  0
  6 13  1  0
  8 10  1  0
  9 10  1  0
  9 11  1  0
  9 12  1  0
 12 13  1  0
M  CHG  1   9   1
M  END
$$$$
