CypD-x0505-pandda-model
     RDKit          3D

 14 14  0  0  0  0  0  0  0  0999 V2000
   -2.7488   16.8319    4.8814 C   0  0  0  0  0  0  0  0  0  0  0  0
   -1.5181   12.4587    3.4631 N   0  0  0  0  0  0  0  0  0  0  0  0
   -1.9455   15.8803    4.2108 O   0  0  0  0  0  0  0  0  0  0  0  0
   -2.4641   14.7782    3.6775 C   0  0  0  0  0  0  0  0  0  0  0  0
   -2.7371   10.4450    5.2315 N   0  0  0  0  0  0  0  0  0  0  0  0
   -3.6343   14.5054    3.7994 O   0  0  0  0  0  0  0  0  0  0  0  0
   -1.4926   13.8604    2.9334 C   0  0  0  0  0  0  0  0  0  0  0  0
   -2.8341   11.6073    1.8941 O   0  0  0  0  0  0  0  0  0  0  0  0
   -2.4189   11.5258    3.0412 C   0  0  0  0  0  0  0  0  0  0  0  0
   -3.2752    9.3499    5.7165 O   0  0  0  0  0  0  0  0  0  0  0  0
   -2.8727   10.4760    3.9366 C   0  0  0  0  0  0  0  0  0  0  0  0
   -3.5438    9.3286    3.5447 C   0  0  0  0  0  0  0  0  0  0  0  0
   -3.7540    8.6788    4.6909 C   0  0  0  0  0  0  0  0  0  0  0  0
   -4.4282    7.3445    4.9376 C   0  0  0  0  0  0  0  0  0  0  0  0
  1  3  1  0
  2  7  1  0
  2  9  1  0
  3  4  1  0
  4  6  2  0
  4  7  1  0
  5 10  1  0
  5 11  2  0
  8  9  2  0
  9 11  1  0
 10 13  1  0
 11 12  1  0
 12 13  2  0
 13 14  1  0
M  END
$$$$
