CypD-x0503-pandda-model
     RDKit          3D

 14 14  0  0  0  0  0  0  0  0999 V2000
   -0.7040    3.7459   -2.7994 C   0  0  0  0  0  0  0  0  0  0  0  0
   -0.0456    4.7793   -3.6437 N   0  0  0  0  0  0  0  0  0  0  0  0
   -0.9223    7.5479   -3.1471 O   0  0  0  0  0  0  0  0  0  0  0  0
   -1.0191    5.5495   -4.5089 C   0  0  0  0  0  0  0  0  0  0  0  0
    1.9301    6.0740   -5.4150 N   0  0  0  0  0  0  0  0  0  0  0  0
   -2.8084    7.0615   -3.9621 O   0  0  0  0  0  0  0  0  0  0  0  0
   -1.6072    6.8087   -3.8671 C   0  0  0  0  0  0  0  0  0  0  0  0
    1.2495    5.4618   -1.9768 O   0  0  0  0  0  0  0  0  0  0  0  0
    1.0998    5.4134   -3.1930 C   0  0  0  0  0  0  0  0  0  0  0  0
    2.1265    5.9847   -4.0823 C   0  0  0  0  0  0  0  0  0  0  0  0
    3.3275    6.4127   -3.5060 C   0  0  0  0  0  0  0  0  0  0  0  0
    4.3097    7.0201   -4.2505 C   0  0  0  0  0  0  0  0  0  0  0  0
    4.0583    7.1594   -5.5905 C   0  0  0  0  0  0  0  0  0  0  0  0
    2.8770    6.6741   -6.1142 C   0  0  0  0  0  0  0  0  0  0  0  0
  1  2  1  0
  2  4  1  0
  2  9  1  0
  3  7  1  0
  4  7  1  0
  5 10  2  0
  5 14  1  0
  6  7  2  0
  8  9  2  0
  9 10  1  0
 10 11  1  0
 11 12  2  0
 12 13  1  0
 13 14  2  0
M  CHG  1   3  -1
M  END
$$$$
