CypD-x0385-pandda-model
     RDKit          3D

 14 15  0  0  0  0  0  0  0  0999 V2000
   -3.7583   12.9520   -2.9604 C   0  0  0  0  0  0  0  0  0  0  0  0
   -2.6888   13.2416   -2.3041 N   0  0  0  0  0  0  0  0  0  0  0  0
   -1.5628   12.1845   -0.6665 O   0  0  0  0  0  0  0  0  0  0  0  0
   -1.4986   13.8440   -2.9354 C   0  0  0  0  0  0  0  0  0  0  0  0
   -2.9529   13.6808    1.4089 N   0  0  0  0  0  0  0  0  0  0  0  0
   -1.0990   15.2268   -2.5083 C   0  0  0  0  0  0  0  0  0  0  0  0
   -2.7382   12.5768    2.1794 N   0  0  0  0  0  0  0  0  0  0  0  0
   -1.5915   14.9815   -3.8948 C   0  0  0  0  0  0  0  0  0  0  0  0
   -2.4844   13.0154   -0.9304 C   0  0  0  0  0  0  0  0  0  0  0  0
   -3.1771   13.6765    0.0293 C   0  0  0  0  0  0  0  0  0  0  0  0
   -3.0698   14.7841    2.1745 C   0  0  0  0  0  0  0  0  0  0  0  0
   -2.9368   14.3791    3.4392 C   0  0  0  0  0  0  0  0  0  0  0  0
   -2.7159   13.0153    3.4128 C   0  0  0  0  0  0  0  0  0  0  0  0
   -3.0685   15.5655    4.9580 Br  0  0  0  0  0  0  0  0  0  0  0  0
  1  2  2  0
  2  4  1  0
  2  9  1  0
  3  9  1  0
  4  6  1  0
  4  8  1  0
  5  7  1  0
  5 10  1  0
  5 11  1  0
  6  8  1  0
  7 13  2  0
  9 10  2  0
 11 12  2  0
 12 13  1  0
 12 14  1  0
M  CHG  2   2   1   3  -1
M  END
$$$$
