CypD-x0351-pandda-model
     RDKit          3D

 13 13  0  0  0  0  0  0  0  0999 V2000
   -4.8694    7.5609    3.9324 C   0  0  0  0  0  0  0  0  0  0  0  0
   -4.2202    8.2313    5.0522 N   0  0  0  0  0  0  0  0  0  0  0  0
   -4.8932   10.5361    4.2394 O   0  0  0  0  0  0  0  0  0  0  0  0
   -3.7771    9.8467    4.8414 S   0  0  0  0  0  0  0  0  0  0  0  0
   -3.4602    7.3540    5.9365 C   0  0  0  0  0  0  0  0  0  0  0  0
   -2.5624    9.8052    3.6669 N   0  0  0  0  0  0  0  0  0  0  0  0
   -3.1711   10.3795    6.0453 O   0  0  0  0  0  0  0  0  0  0  0  0
   -2.3506   11.1874    3.1693 C   0  0  0  0  0  0  0  0  0  0  0  0
   -0.2156   10.4072    2.1404 N   0  0  0  0  0  0  0  0  0  0  0  0
   -0.8997   11.5393    2.7822 C   0  0  0  0  0  0  0  0  0  0  0  0
    1.1521   10.8113    1.7943 C   0  0  0  0  0  0  0  0  0  0  0  0
   -0.1864    9.2398    3.0640 C   0  0  0  0  0  0  0  0  0  0  0  0
   -1.2940    9.2342    4.1460 C   0  0  0  0  0  0  0  0  0  0  0  0
  1  2  1  0
  2  4  1  0
  2  5  1  0
  3  4  2  0
  4  6  1  0
  4  7  2  0
  6  8  1  0
  6 13  1  0
  8 10  1  0
  9 10  1  0
  9 11  1  0
  9 12  1  0
 12 13  1  0
M  END
$$$$
