CypD-x0130-pandda-model
     RDKit          3D

 15 16  0  0  1  0  0  0  0  0999 V2000
   -2.0750   13.2340    3.0920 C   0  0  0  0  0  0  0  0  0  0  0  0
   -1.0890   12.5110    3.7110 N   0  0  0  0  0  0  0  0  0  0  0  0
   -2.5610   12.8000    2.0540 O   0  0  0  0  0  0  0  0  0  0  0  0
   -3.5170   16.8370    3.9420 S   0  0  0  0  0  0  0  0  0  0  0  0
   -0.2070   11.5240    3.0410 C   0  0  2  0  0  0  0  0  0  0  0  0
    1.9360   11.8470    4.3450 N   0  0  0  0  0  0  0  0  0  0  0  0
    2.1950   10.9150    6.3490 O   0  0  0  0  0  0  0  0  0  0  0  0
   -0.2960   10.1610    3.7400 C   0  0  0  0  0  0  0  0  0  0  0  0
   -2.3060   14.8560    4.9840 N   0  0  0  0  0  0  0  0  0  0  0  0
    0.2730   10.1890    5.1740 C   0  0  0  0  0  0  0  0  0  0  0  0
    1.5460   11.0100    5.3340 C   0  0  0  0  0  0  0  0  0  0  0  0
    1.2530   12.0260    3.0320 C   0  0  0  0  0  0  0  0  0  0  0  0
   -2.5240   14.5110    3.6390 C   0  0  0  0  0  0  0  0  0  0  0  0
   -3.1640   15.4690    2.9350 C   0  0  0  0  0  0  0  0  0  0  0  0
   -2.7650   16.0090    5.2740 C   0  0  0  0  0  0  0  0  0  0  0  0
  1  2  1  0
  1  3  2  0
  1 13  1  0
  5  2  1  1
  4 14  1  0
  4 15  1  0
  5  8  1  0
  5 12  1  0
  6 11  1  0
  6 12  1  0
  7 11  2  0
  8 10  1  0
  9 13  1  0
  9 15  2  0
 10 11  1  0
 13 14  2  0
M  END
$$$$
