CypD-x0385-pandda-model
     RDKit          3D

 14 15  0  0  0  0  0  0  0  0999 V2000
   -4.0123   12.2002   -2.9543 C   0  0  0  0  0  0  0  0  0  0  0  0
   -3.2297   12.9568   -2.2590 N   0  0  0  0  0  0  0  0  0  0  0  0
   -4.4620   12.7462   -0.2841 O   0  0  0  0  0  0  0  0  0  0  0  0
   -2.3125   13.8494   -3.0392 C   0  0  0  0  0  0  0  0  0  0  0  0
   -2.3912   13.3019    1.4119 N   0  0  0  0  0  0  0  0  0  0  0  0
   -0.8498   13.5347   -3.0168 C   0  0  0  0  0  0  0  0  0  0  0  0
   -1.9939   12.3486    2.3069 N   0  0  0  0  0  0  0  0  0  0  0  0
   -1.3347   14.8523   -2.4990 C   0  0  0  0  0  0  0  0  0  0  0  0
   -3.2501   12.9819   -0.8309 C   0  0  0  0  0  0  0  0  0  0  0  0
   -2.2313   13.1672    0.0283 C   0  0  0  0  0  0  0  0  0  0  0  0
   -2.8879   14.3806    2.0541 C   0  0  0  0  0  0  0  0  0  0  0  0
   -2.7905   14.1168    3.3616 C   0  0  0  0  0  0  0  0  0  0  0  0
   -2.2374   12.8544    3.4858 C   0  0  0  0  0  0  0  0  0  0  0  0
   -3.3186   15.3064    4.7925 Br  0  0  0  0  0  0  0  0  0  0  0  0
  1  2  2  0
  2  4  1  0
  2  9  1  0
  3  9  1  0
  4  6  1  0
  4  8  1  0
  5  7  1  0
  5 10  1  0
  5 11  1  0
  6  8  1  0
  7 13  2  0
  9 10  2  0
 11 12  2  0
 12 13  1  0
 12 14  1  0
M  CHG  1   2   1
M  END
$$$$
