CypD-x0364-pandda-model
     RDKit          3D

 14 15  0  0  1  0  0  0  0  0999 V2000
   -4.0252    6.5927    5.0733 C   0  0  0  0  0  0  0  0  0  0  0  0
   -2.1686    7.1284    3.5534 N   0  0  0  0  0  0  0  0  0  0  0  0
   -2.4441   11.1234    5.6399 O   0  0  0  0  0  0  0  0  0  0  0  0
   -2.0313   10.0801    4.7287 S   0  0  0  0  0  0  0  0  0  0  0  0
   -2.8877    7.5669    4.7741 C   0  0  2  0  0  0  0  0  0  0  0  0
   -1.4415   10.3879    3.4339 O   0  0  0  0  0  0  0  0  0  0  0  0
   -1.9136    7.7303    5.9548 C   0  0  0  0  0  0  0  0  0  0  0  0
   -1.0350    5.3367    4.3302 O   0  0  0  0  0  0  0  0  0  0  0  0
   -0.9954    8.8959    5.5721 C   0  0  0  0  0  0  0  0  0  0  0  0
   -3.4175    8.9758    4.5242 C   0  0  0  0  0  0  0  0  0  0  0  0
   -1.2925    6.0965    3.4305 C   0  0  0  0  0  0  0  0  0  0  0  0
   -0.6029    5.8984    2.0910 C   0  0  0  0  0  0  0  0  0  0  0  0
    0.7698    6.4618    1.8632 C   0  0  0  0  0  0  0  0  0  0  0  0
    0.5830    4.9823    1.9621 C   0  0  0  0  0  0  0  0  0  0  0  0
  5  1  1  1
  2  5  1  0
  2 11  1  0
  3  4  2  0
  4  6  2  0
  4  9  1  0
  4 10  1  0
  5  7  1  0
  5 10  1  0
  7  9  1  0
  8 11  2  0
 11 12  1  0
 12 13  1  0
 12 14  1  0
 13 14  1  0
M  END
$$$$
