CypD-x0196-pandda-model
     RDKit          3D

 15 15  0  0  1  0  0  0  0  0999 V2000
   -1.4666   11.4840    2.9701 C   0  0  0  0  0  0  0  0  0  0  0  0
   -2.2092   13.3052    4.3946 N   0  0  0  0  0  0  0  0  0  0  0  0
   -2.9474   15.3460    4.9121 O   0  0  0  0  0  0  0  0  0  0  0  0
   -2.5836   11.9535    3.9000 C   0  0  2  0  0  0  0  0  0  0  0  0
   -3.5404    9.7905    4.9230 N   0  0  0  0  0  0  0  0  0  0  0  0
   -2.2821   11.2046    6.1276 O   0  0  0  0  0  0  0  0  0  0  0  0
   -2.7114   14.5146    4.0684 C   0  0  0  0  0  0  0  0  0  0  0  0
   -2.9692   14.8420    2.6215 C   0  0  0  0  0  0  0  0  0  0  0  0
   -2.7991   10.9429    5.0634 C   0  0  0  0  0  0  0  0  0  0  0  0
   -3.5176    8.7621    6.0167 C   0  0  0  0  0  0  0  0  0  0  0  0
   -4.0916    7.3879    5.6290 C   0  0  0  0  0  0  0  0  0  0  0  0
   -3.3540    6.6500    4.4988 C   0  0  0  0  0  0  0  0  0  0  0  0
   -2.8591    7.5267    3.3391 C   0  0  0  0  0  0  0  0  0  0  0  0
   -3.9142    8.5015    2.7908 C   0  0  0  0  0  0  0  0  0  0  0  0
   -4.4773    9.5213    3.7967 C   0  0  0  0  0  0  0  0  0  0  0  0
  4  1  1  6
  2  4  1  0
  2  7  1  0
  3  7  2  0
  4  9  1  0
  5  9  1  0
  5 10  1  0
  5 15  1  0
  6  9  2  0
  7  8  1  0
 10 11  1  0
 11 12  1  0
 12 13  1  0
 13 14  1  0
 14 15  1  0
M  END
$$$$
