CypD-x0202-pandda-model
     RDKit          3D

 15 16  0  0  1  0  0  0  0  0999 V2000
   -4.6832    7.2741    4.4761 C   0  0  0  0  0  0  0  0  0  0  0  0
   -2.5426   10.4289    5.6461 N   0  0  0  0  0  0  0  0  0  0  0  0
   -2.7203   11.8873    2.4361 O   0  0  0  0  0  0  0  0  0  0  0  0
   -3.2573    8.9751    6.1767 S   0  0  0  0  0  0  0  0  0  0  0  0
   -3.8830    8.5517    4.6187 C   0  0  0  0  0  0  0  0  0  0  0  0
   -1.4602   12.6395    4.0881 N   0  0  0  0  0  0  0  0  0  0  0  0
   -2.4013   15.1993    5.0960 O   0  0  0  0  0  0  0  0  0  0  0  0
   -3.5242    9.5148    3.7669 C   0  0  0  0  0  0  0  0  0  0  0  0
   -2.7654   10.5714    4.3777 C   0  0  0  0  0  0  0  0  0  0  0  0
   -2.3201   11.7137    3.5788 C   0  0  0  0  0  0  0  0  0  0  0  0
   -1.1131   13.9483    3.4743 C   0  0  0  0  0  0  0  0  0  0  0  0
   -2.1954   15.0122    3.7337 C   0  0  2  0  0  0  0  0  0  0  0  0
   -1.8312   16.3971    3.2159 C   0  0  0  0  0  0  0  0  0  0  0  0
   -2.4952   17.3425    4.2081 C   0  0  0  0  0  0  0  0  0  0  0  0
   -3.0288   16.4231    5.3003 C   0  0  0  0  0  0  0  0  0  0  0  0
  1  5  1  0
  2  4  1  0
  2  9  2  0
  3 10  2  0
  4  5  1  0
  5  8  2  0
  6 10  1  0
  6 11  1  0
  7 12  1  0
  7 15  1  0
  8  9  1  0
  9 10  1  0
 12 11  1  1
 12 13  1  0
 13 14  1  0
 14 15  1  0
M  END
$$$$
