CypD-x0875-pandda-model
     RDKit          3D

 11 11  0  0  0  0  0  0  0  0999 V2000
    1.2710    1.8030   -2.1070 C   0  0  0  0  0  0  0  0  0  0  0  0
   -0.3150    3.0340   -0.6340 N   0  0  0  0  0  0  0  0  0  0  0  0
   -1.8010    6.5610    1.6770 O   0  0  0  0  0  0  0  0  0  0  0  0
    0.0510    1.6980   -1.1790 C   0  0  0  0  0  0  0  0  0  0  0  0
   -0.9080    5.0760   -0.6200 N   0  0  0  0  0  0  0  0  0  0  0  0
   -0.8780    5.1420    2.9720 O   0  0  0  0  0  0  0  0  0  0  0  0
   -1.1420    1.0670   -1.9120 C   0  0  0  0  0  0  0  0  0  0  0  0
   -0.6130    4.0960   -1.3930 N   0  0  0  0  0  0  0  0  0  0  0  0
   -0.4290    3.3690    0.6480 C   0  0  0  0  0  0  0  0  0  0  0  0
   -0.8180    4.6660    0.6660 C   0  0  0  0  0  0  0  0  0  0  0  0
   -1.1430    5.5050    1.8110 C   0  0  0  0  0  0  0  0  0  0  0  0
  1  4  1  0
  2  4  1  0
  2  8  1  0
  2  9  1  0
  3 11  1  0
  4  7  1  0
  5  8  2  0
  5 10  1  0
  6 11  2  0
  9 10  2  0
 10 11  1  0
M  CHG  1   3  -1
M  END
$$$$
