CypD-x0422-pandda-model
     RDKit          3D

 14 14  0  0  0  0  0  0  0  0999 V2000
   -1.4928   19.0218    1.5513 C   0  0  0  0  0  0  0  0  0  0  0  0
   -1.5570   13.6621    3.5066 N   0  0  0  0  0  0  0  0  0  0  0  0
   -2.5990   12.5189    1.8593 O   0  0  0  0  0  0  0  0  0  0  0  0
   -1.5001   17.5854    2.0387 C   0  0  0  0  0  0  0  0  0  0  0  0
   -2.1214   11.4614    5.2045 O   0  0  0  0  0  0  0  0  0  0  0  0
   -0.5501   16.6715    1.6148 C   0  0  0  0  0  0  0  0  0  0  0  0
   -0.5609   15.3683    2.0860 C   0  0  0  0  0  0  0  0  0  0  0  0
    0.5211   14.4047    1.6152 C   0  0  0  0  0  0  0  0  0  0  0  0
   -1.5475   14.9637    2.9854 C   0  0  0  0  0  0  0  0  0  0  0  0
   -2.1343   12.5423    2.9783 C   0  0  0  0  0  0  0  0  0  0  0  0
   -2.1887   11.2536    3.8145 C   0  0  0  0  0  0  0  0  0  0  0  0
   -2.5118   15.8819    3.4015 C   0  0  0  0  0  0  0  0  0  0  0  0
   -3.6216   15.4907    4.3637 C   0  0  0  0  0  0  0  0  0  0  0  0
   -2.4748   17.1814    2.9307 C   0  0  0  0  0  0  0  0  0  0  0  0
  1  4  1  0
  2  9  1  0
  2 10  1  0
  3 10  2  0
  4  6  2  0
  4 14  1  0
  5 11  1  0
  6  7  1  0
  7  8  1  0
  7  9  2  0
  9 12  1  0
 10 11  1  0
 12 13  1  0
 12 14  2  0
M  END
$$$$
