CypD-x0802-pandda-model
     RDKit          3D

 15 16  0  0  0  0  0  0  0  0999 V2000
    1.4050   11.9470    0.6990 C   0  0  0  0  0  0  0  0  0  0  0  0
    1.0930   11.0940   -1.5910 N   0  0  0  0  0  0  0  0  0  0  0  0
   -2.8150   11.8810    0.6540 O   0  0  0  0  0  0  0  0  0  0  0  0
   -1.3780   10.5400   -1.8030 S   0  0  0  0  0  0  0  0  0  0  0  0
    0.4990   11.3850   -0.3790 C   0  0  0  0  0  0  0  0  0  0  0  0
   -1.5770   10.6440    2.0310 N   0  0  0  0  0  0  0  0  0  0  0  0
   -2.5690   10.7680    5.5730 O   0  0  0  0  0  0  0  0  0  0  0  0
    0.2480   10.6220   -2.4160 C   0  0  0  0  0  0  0  0  0  0  0  0
   -0.7000    9.9560    4.6820 N   0  0  0  0  0  0  0  0  0  0  0  0
   -0.8270   11.1440   -0.2570 C   0  0  0  0  0  0  0  0  0  0  0  0
   -1.7770   11.2580    0.8200 C   0  0  0  0  0  0  0  0  0  0  0  0
   -0.6240    9.5090    2.2460 C   0  0  0  0  0  0  0  0  0  0  0  0
    0.1920    9.6900    3.5330 C   0  0  0  0  0  0  0  0  0  0  0  0
   -1.8990   10.5770    4.5850 C   0  0  0  0  0  0  0  0  0  0  0  0
   -2.4310   11.0230    3.2150 C   0  0  0  0  0  0  0  0  0  0  0  0
  1  5  1  0
  2  5  1  0
  2  8  2  0
  3 11  2  0
  4  8  1  0
  4 10  1  0
  5 10  2  0
  6 11  1  0
  6 12  1  0
  6 15  1  0
  7 14  2  0
  9 13  1  0
  9 14  1  0
 10 11  1  0
 12 13  1  0
 14 15  1  0
M  END
$$$$
