CypD-x0202-pandda-model
     RDKit          3D

 15 16  0  0  1  0  0  0  0  0999 V2000
   -4.7390    7.3620    4.5970 C   0  0  0  0  0  0  0  0  0  0  0  0
   -2.5710   10.4960    5.7770 N   0  0  0  0  0  0  0  0  0  0  0  0
   -2.9100   12.0430    2.6230 O   0  0  0  0  0  0  0  0  0  0  0  0
   -3.3410    9.0690    6.3170 S   0  0  0  0  0  0  0  0  0  0  0  0
   -3.9610    8.6500    4.7570 C   0  0  0  0  0  0  0  0  0  0  0  0
   -1.4290   12.6460    4.1640 N   0  0  0  0  0  0  0  0  0  0  0  0
   -1.0360   16.0270    2.7150 O   0  0  0  0  0  0  0  0  0  0  0  0
   -3.5960    9.6160    3.9130 C   0  0  0  0  0  0  0  0  0  0  0  0
   -2.8240   10.6600    4.5170 C   0  0  0  0  0  0  0  0  0  0  0  0
   -2.3970   11.8010    3.7080 C   0  0  0  0  0  0  0  0  0  0  0  0
   -0.8100   13.7630    3.4000 C   0  0  0  0  0  0  0  0  0  0  0  0
   -1.7380   14.9820    3.2960 C   0  0  1  0  0  0  0  0  0  0  0  0
   -2.2130   15.5600    4.6230 C   0  0  0  0  0  0  0  0  0  0  0  0
   -2.4320   17.0270    4.2910 C   0  0  0  0  0  0  0  0  0  0  0  0
   -1.6780   17.2320    2.9790 C   0  0  0  0  0  0  0  0  0  0  0  0
  1  5  1  0
  2  4  1  0
  2  9  2  0
  3 10  2  0
  4  5  1  0
  5  8  2  0
  6 10  1  0
  6 11  1  0
  7 12  1  0
  7 15  1  0
  8  9  1  0
  9 10  1  0
 12 11  1  1
 12 13  1  0
 13 14  1  0
 14 15  1  0
M  END
$$$$
