CypD-x0114-pandda-model
     RDKit          3D

 11 11  0  0  0  0  0  0  0  0999 V2000
    0.0333   16.3543   -1.0184 C   0  0  0  0  0  0  0  0  0  0  0  0
   -2.6194   13.0130   -1.6696 N   0  0  0  0  0  0  0  0  0  0  0  0
   -1.0794   16.2976   -1.8739 O   0  0  0  0  0  0  0  0  0  0  0  0
   -1.4989   15.0451   -2.1776 C   0  0  0  0  0  0  0  0  0  0  0  0
   -2.8319   11.4146   -3.2313 O   0  0  0  0  0  0  0  0  0  0  0  0
   -1.2662   14.5842   -3.4961 C   0  0  0  0  0  0  0  0  0  0  0  0
   -1.7374   13.3596   -3.8579 C   0  0  0  0  0  0  0  0  0  0  0  0
   -2.4336   12.5342   -2.9369 C   0  0  0  0  0  0  0  0  0  0  0  0
   -2.1593   14.2583   -1.2819 C   0  0  0  0  0  0  0  0  0  0  0  0
    1.1198   16.1513   -1.7547 F   0  0  0  0  0  0  0  0  0  0  0  0
    0.1254   17.5993   -0.5649 F   0  0  0  0  0  0  0  0  0  0  0  0
  1  3  1  0
  1 10  1  0
  1 11  1  0
  2  8  1  0
  2  9  1  0
  3  4  1  0
  4  6  1  0
  4  9  2  0
  5  8  2  0
  6  7  2  0
  7  8  1  0
M  END
$$$$
