CypD-x0455-pandda-model
     RDKit          3D

 12 12  0  0  0  0  0  0  0  0999 V2000
   -1.4829   13.2387    2.3911 C   0  0  0  0  0  0  0  0  0  0  0  0
   -1.4237   11.8733    1.8675 N   0  0  0  0  0  0  0  0  0  0  0  0
    1.0064   11.6347    2.4309 O   0  0  0  0  0  0  0  0  0  0  0  0
   -0.2339   10.8968    2.5515 S   0  0  0  0  0  0  0  0  0  0  0  0
   -0.6332   10.6542    4.2820 C   0  0  0  0  0  0  0  0  0  0  0  0
   -2.9683   10.7293    5.0884 N   0  0  0  0  0  0  0  0  0  0  0  0
   -0.3158    9.6324    1.8525 O   0  0  0  0  0  0  0  0  0  0  0  0
   -2.0197   10.0901    4.5016 C   0  0  0  0  0  0  0  0  0  0  0  0
   -3.9876    9.9179    5.1121 O   0  0  0  0  0  0  0  0  0  0  0  0
   -2.4411    8.8131    4.1359 C   0  0  0  0  0  0  0  0  0  0  0  0
   -3.7129    8.7693    4.5577 C   0  0  0  0  0  0  0  0  0  0  0  0
   -4.7713    7.6867    4.5027 C   0  0  0  0  0  0  0  0  0  0  0  0
  1  2  1  0
  2  4  1  0
  3  4  2  0
  4  5  1  0
  4  7  2  0
  5  8  1  0
  6  8  2  0
  6  9  1  0
  8 10  1  0
  9 11  1  0
 10 11  2  0
 11 12  1  0
M  END
$$$$
