CypD-x0120-pandda-model
     RDKit          3D

 11 11  0  0  0  0  0  0  0  0999 V2000
   -4.9090    9.1300    4.2100 C   0  0  0  0  0  0  0  0  0  0  0  0
   -3.7420    8.2440    4.4640 N   0  0  0  0  0  0  0  0  0  0  0  0
   -2.2190    9.7580    3.7700 O   0  0  0  0  0  0  0  0  0  0  0  0
   -4.1140    6.9050    5.0020 C   0  0  0  0  0  0  0  0  0  0  0  0
   -1.3920    7.1360    2.0780 O   0  0  0  0  0  0  0  0  0  0  0  0
   -2.4570    8.6410    4.1840 C   0  0  0  0  0  0  0  0  0  0  0  0
   -1.2050    5.5070    3.4620 O   0  0  0  0  0  0  0  0  0  0  0  0
   -1.2810    7.7100    4.3770 C   0  0  0  0  0  0  0  0  0  0  0  0
   -0.7790    7.3340    5.7470 C   0  0  0  0  0  0  0  0  0  0  0  0
    0.0230    8.2670    4.8990 C   0  0  0  0  0  0  0  0  0  0  0  0
   -1.2840    6.7200    3.2410 C   0  0  0  0  0  0  0  0  0  0  0  0
  1  2  1  0
  2  4  1  0
  2  6  1  0
  3  6  2  0
  5 11  1  0
  6  8  1  0
  7 11  2  0
  8  9  1  0
  8 10  1  0
  8 11  1  0
  9 10  1  0
M  CHG  1   5  -1
M  END
$$$$
