CypD-x0950-pandda-model
     RDKit          3D

 11 12  0  0  0  0  0  0  0  0999 V2000
   -3.0581   12.3750   -0.7068 C   0  0  0  0  0  0  0  0  0  0  0  0
   -4.1881   12.4213   -0.8837 N   0  0  0  0  0  0  0  0  0  0  0  0
   -1.6540   12.2736   -0.4195 C   0  0  0  0  0  0  0  0  0  0  0  0
   -0.6967   12.9352   -1.0082 N   0  0  0  0  0  0  0  0  0  0  0  0
    0.2077   11.6200    0.5768 C   0  0  0  0  0  0  0  0  0  0  0  0
    0.4415   12.5444   -0.3948 N   0  0  0  0  0  0  0  0  0  0  0  0
    1.0540   10.9396    1.4570 C   0  0  0  0  0  0  0  0  0  0  0  0
    0.5024   10.0589    2.3565 C   0  0  0  0  0  0  0  0  0  0  0  0
   -0.8827    9.8476    2.3787 C   0  0  0  0  0  0  0  0  0  0  0  0
   -1.7075   10.5182    1.5072 C   0  0  0  0  0  0  0  0  0  0  0  0
   -1.1535   11.4202    0.5871 C   0  0  0  0  0  0  0  0  0  0  0  0
  1  2  3  0
  1  3  1  0
  3  4  2  0
  3 11  1  0
  4  6  1  0
  5  6  1  0
  5  7  1  0
  5 11  2  0
  7  8  2  0
  8  9  1  0
  9 10  2  0
 10 11  1  0
M  END
$$$$
