CypD-x0917-pandda-model
     RDKit          3D

 15 16  0  0  1  0  0  0  0  0999 V2000
    0.5148   14.2105   -0.1035 C   0  0  0  0  0  0  0  0  0  0  0  0
   -2.2465   15.7177    3.9368 N   0  0  0  0  0  0  0  0  0  0  0  0
   -2.9630   12.4966    1.3522 O   0  0  0  0  0  0  0  0  0  0  0  0
    0.2818   14.0792    1.4057 C   0  0  2  0  0  0  0  0  0  0  0  0
   -1.1282   13.7049    1.6298 N   0  0  0  0  0  0  0  0  0  0  0  0
    0.4097   15.4204    2.1107 C   0  0  0  0  0  0  0  0  0  0  0  0
   -0.9599   16.0898    1.9578 C   0  0  2  0  0  0  0  0  0  0  0  0
   -1.4412   16.7500    3.2503 C   0  0  0  0  0  0  0  0  0  0  0  0
   -2.9378   14.9970    2.8393 C   0  0  0  0  0  0  0  0  0  0  0  0
   -1.9417   14.9525    1.6745 C   0  0  2  0  0  0  0  0  0  0  0  0
   -1.7532   12.4882    1.4622 C   0  0  0  0  0  0  0  0  0  0  0  0
   -1.0876   11.0796    1.3886 C   0  0  0  0  0  0  0  0  0  0  0  0
   -1.2212   10.5326   -0.0434 C   0  0  0  0  0  0  0  0  0  0  0  0
   -1.8441   10.1357    2.3491 C   0  0  0  0  0  0  0  0  0  0  0  0
    0.3949   10.9709    1.7784 C   0  0  0  0  0  0  0  0  0  0  0  0
  4  1  1  6
  2  8  1  0
  2  9  1  0
  3 11  2  0
  4  5  1  0
  4  6  1  0
  5 10  1  0
  5 11  1  0
  7  6  1  1
  7  8  1  0
  7 10  1  0
 10  9  1  1
 11 12  1  0
 12 13  1  0
 12 14  1  0
 12 15  1  0
M  CHG  1   2   1
M  END
$$$$
