CypD-x0881-pandda-model
     RDKit          3D

 13 13  0  0  1  0  0  0  0  0999 V2000
    0.0721   10.8030    3.6060 C   0  0  0  0  0  0  0  0  0  0  0  0
   -2.2843   12.6858    3.7245 N   0  0  0  0  0  0  0  0  0  0  0  0
   -2.6000   10.8735    5.7394 O   0  0  0  0  0  0  0  0  0  0  0  0
   -1.1976   10.6814    2.7395 C   0  0  0  0  0  0  0  0  0  0  0  0
   -3.4176    9.1449    4.5507 N   0  0  0  0  0  0  0  0  0  0  0  0
   -2.7201    6.6991    3.6507 O   0  0  0  0  0  0  0  0  0  0  0  0
   -0.9462   11.3320    1.3731 C   0  0  0  0  0  0  0  0  0  0  0  0
   -2.4771   11.2352    3.4150 C   0  0  1  0  0  0  0  0  0  0  0  0
   -2.8424   10.3873    4.6579 C   0  0  0  0  0  0  0  0  0  0  0  0
   -3.2637    8.1077    5.6182 C   0  0  0  0  0  0  0  0  0  0  0  0
   -2.5677    6.8438    5.0516 C   0  0  0  0  0  0  0  0  0  0  0  0
   -3.9891    7.0891    3.2058 C   0  0  0  0  0  0  0  0  0  0  0  0
   -4.1155    8.6175    3.3324 C   0  0  0  0  0  0  0  0  0  0  0  0
  1  4  1  0
  8  2  1  1
  3  9  2  0
  4  7  1  0
  4  8  1  0
  5  9  1  0
  5 10  1  0
  5 13  1  0
  6 11  1  0
  6 12  1  0
  8  9  1  0
 10 11  1  0
 12 13  1  0
M  CHG  1   2   1
M  END
$$$$
