CypD-x0307-pandda-model
     RDKit          3D

 15 15  0  0  1  0  0  0  0  0999 V2000
   -2.5094   13.3558   -2.8907 C   0  0  0  0  0  0  0  0  0  0  0  0
   -1.9949   12.3057   -2.0051 N   0  0  0  0  0  0  0  0  0  0  0  0
   -2.3836   10.9562    0.1303 O   0  0  0  0  0  0  0  0  0  0  0  0
   -2.9576   12.0326   -0.6440 S   0  0  0  0  0  0  0  0  0  0  0  0
   -1.7046   11.0961   -2.7807 C   0  0  0  0  0  0  0  0  0  0  0  0
   -2.7179   13.4693    0.1510 N   0  0  0  0  0  0  0  0  0  0  0  0
   -4.3516   12.0159   -1.0300 O   0  0  0  0  0  0  0  0  0  0  0  0
   -1.4567   13.5171    0.8905 C   0  0  1  0  0  0  0  0  0  0  0  0
   -0.5560   13.0622    3.2236 N   0  0  0  0  0  0  0  0  0  0  0  0
   -2.7104   12.7587    2.7851 O   0  0  0  0  0  0  0  0  0  0  0  0
   -0.9411   14.9567    0.7687 C   0  0  0  0  0  0  0  0  0  0  0  0
    0.5583   15.1251    1.0503 C   0  0  0  0  0  0  0  0  0  0  0  0
    0.9693   14.8601    2.5050 C   0  0  0  0  0  0  0  0  0  0  0  0
    0.8473   13.3958    2.9249 C   0  0  0  0  0  0  0  0  0  0  0  0
   -1.6153   13.0773    2.3718 C   0  0  0  0  0  0  0  0  0  0  0  0
  1  2  1  0
  2  4  1  0
  2  5  1  0
  3  4  2  0
  4  6  1  0
  4  7  2  0
  8  6  1  6
  8 11  1  0
  8 15  1  0
  9 14  1  0
  9 15  1  0
 10 15  2  0
 11 12  1  0
 12 13  1  0
 13 14  1  0
M  END
$$$$
