CypD-x0950-pandda-model
     RDKit          3D

 11 12  0  0  0  0  0  0  0  0999 V2000
   -2.1888   12.1167    4.4219 C   0  0  0  0  0  0  0  0  0  0  0  0
   -2.2511   11.3100    5.2315 N   0  0  0  0  0  0  0  0  0  0  0  0
   -2.1818   13.1502    3.4206 C   0  0  0  0  0  0  0  0  0  0  0  0
   -3.2283   13.5165    2.7314 N   0  0  0  0  0  0  0  0  0  0  0  0
   -1.4872   14.7841    2.1079 C   0  0  0  0  0  0  0  0  0  0  0  0
   -2.8102   14.5324    1.9414 N   0  0  0  0  0  0  0  0  0  0  0  0
   -0.6312   15.7010    1.4972 C   0  0  0  0  0  0  0  0  0  0  0  0
    0.6850   15.7219    1.8830 C   0  0  0  0  0  0  0  0  0  0  0  0
    1.1548   14.8419    2.8650 C   0  0  0  0  0  0  0  0  0  0  0  0
    0.3074   13.9299    3.4484 C   0  0  0  0  0  0  0  0  0  0  0  0
   -1.0420   13.9019    3.0676 C   0  0  0  0  0  0  0  0  0  0  0  0
  1  2  3  0
  1  3  1  0
  3  4  2  0
  3 11  1  0
  4  6  1  0
  5  6  1  0
  5  7  1  0
  5 11  2  0
  7  8  2  0
  8  9  1  0
  9 10  2  0
 10 11  1  0
M  END
$$$$
