CypD-x0158-pandda-model
     RDKit          3D

 14 15  0  0  0  0  0  0  0  0999 V2000
   -1.4911   13.7448    1.2037 C   0  0  0  0  0  0  0  0  0  0  0  0
   -0.9213   10.1769    2.9679 N   0  0  0  0  0  0  0  0  0  0  0  0
   -1.0826   13.0218    2.3233 O   0  0  0  0  0  0  0  0  0  0  0  0
   -2.4195   10.4751    3.6941 S   0  0  0  0  0  0  0  0  0  0  0  0
   -0.1922   11.9719    2.0509 C   0  0  0  0  0  0  0  0  0  0  0  0
   -2.9763    8.8786    3.6890 N   0  0  0  0  0  0  0  0  0  0  0  0
   -3.2961   11.2052    2.8060 O   0  0  0  0  0  0  0  0  0  0  0  0
   -0.8386   10.6507    1.5594 C   0  0  0  0  0  0  0  0  0  0  0  0
   -2.2911   10.8648    5.0869 O   0  0  0  0  0  0  0  0  0  0  0  0
    0.1245   11.1667    3.3341 C   0  0  0  0  0  0  0  0  0  0  0  0
   -2.1926    7.9935    4.5393 C   0  0  0  0  0  0  0  0  0  0  0  0
   -3.0711    6.7640    4.7094 C   0  0  0  0  0  0  0  0  0  0  0  0
   -4.4948    7.2797    4.5190 C   0  0  0  0  0  0  0  0  0  0  0  0
   -4.3366    8.7614    4.1976 C   0  0  0  0  0  0  0  0  0  0  0  0
  1  3  1  0
  2  4  1  0
  2  8  1  0
  2 10  1  0
  3  5  1  0
  4  6  1  0
  4  7  2  0
  4  9  2  0
  5  8  1  0
  5 10  1  0
  6 11  1  0
  6 14  1  0
 11 12  1  0
 12 13  1  0
 13 14  1  0
M  END
$$$$
