CypD-x0403-pandda-model
     RDKit          3D

 15 15  0  0  1  0  0  0  0  0999 V2000
   -1.2706   13.7178   -3.4657 C   0  0  0  0  0  0  0  0  0  0  0  0
   -1.0857   14.0522    0.3721 N   0  0  0  0  0  0  0  0  0  0  0  0
   -2.3894   12.8849   -1.0552 O   0  0  0  0  0  0  0  0  0  0  0  0
   -1.2781   11.0102    4.2261 S   0  0  0  0  0  0  0  0  0  0  0  0
   -0.7799   14.2539   -2.1111 C   0  0  0  0  0  0  0  0  0  0  0  0
   -1.5045   12.6011    3.7864 N   0  0  0  0  0  0  0  0  0  0  0  0
    0.1478   10.7592    4.2116 O   0  0  0  0  0  0  0  0  0  0  0  0
   -1.4823   13.6736   -0.8862 C   0  0  0  0  0  0  0  0  0  0  0  0
   -2.0397   10.8671    5.4437 O   0  0  0  0  0  0  0  0  0  0  0  0
   -0.1151   15.1444    0.6776 C   0  0  0  0  0  0  0  0  0  0  0  0
    0.8985   14.6732    1.7310 C   0  0  0  0  0  0  0  0  0  0  0  0
    0.2132   14.1097    2.9855 C   0  0  0  0  0  0  0  0  0  0  0  0
   -0.7948   13.0242    2.6021 C   0  0  2  0  0  0  0  0  0  0  0  0
   -1.8050   13.5611    1.5808 C   0  0  0  0  0  0  0  0  0  0  0  0
   -2.0694   10.1017    2.9122 C   0  0  0  0  0  0  0  0  0  0  0  0
  1  5  1  0
  2  8  1  0
  2 10  1  0
  2 14  1  0
  3  8  2  0
  4  6  1  0
  4  7  2  0
  4  9  2  0
  4 15  1  0
  5  8  1  0
 13  6  1  1
 10 11  1  0
 11 12  1  0
 12 13  1  0
 13 14  1  0
M  END
$$$$
