CypD-x0698-pandda-model
     RDKit          3D

 15 16  0  0  0  0  0  0  0  0999 V2000
   -1.0646    3.1674   -2.2850 C   0  0  0  0  0  0  0  0  0  0  0  0
    1.8405    6.5281   -4.0674 N   0  0  0  0  0  0  0  0  0  0  0  0
    0.1464    3.8779   -2.4625 O   0  0  0  0  0  0  0  0  0  0  0  0
    0.4368    4.8183   -1.5359 C   0  0  0  0  0  0  0  0  0  0  0  0
    4.1630    7.5982   -5.5247 N   0  0  0  0  0  0  0  0  0  0  0  0
    0.5650    4.4434   -0.2034 C   0  0  0  0  0  0  0  0  0  0  0  0
    0.7976    5.3950    0.7704 C   0  0  0  0  0  0  0  0  0  0  0  0
    0.9078    6.7272    0.4126 C   0  0  0  0  0  0  0  0  0  0  0  0
    0.8074    7.0972   -0.9176 C   0  0  0  0  0  0  0  0  0  0  0  0
    0.5986    6.1505   -1.9102 C   0  0  0  0  0  0  0  0  0  0  0  0
    0.5289    6.6013   -3.3699 C   0  0  0  0  0  0  0  0  0  0  0  0
    1.7047    7.0022   -5.4639 C   0  0  0  0  0  0  0  0  0  0  0  0
    3.0350    6.9199   -6.2447 C   0  0  0  0  0  0  0  0  0  0  0  0
    4.2758    7.1302   -4.1068 C   0  0  0  0  0  0  0  0  0  0  0  0
    2.9296    7.2447   -3.3592 C   0  0  0  0  0  0  0  0  0  0  0  0
  1  3  1  0
  2 11  1  0
  2 12  1  0
  2 15  1  0
  3  4  1  0
  4  6  2  0
  4 10  1  0
  5 13  1  0
  5 14  1  0
  6  7  1  0
  7  8  2  0
  8  9  1  0
  9 10  2  0
 10 11  1  0
 12 13  1  0
 14 15  1  0
M  CHG  1   5   1
M  END
$$$$
