CypD-x0156-pandda-model
     RDKit          3D

 14 15  0  0  0  0  0  0  0  0999 V2000
   -5.9485   12.5437   -6.9538 C   0  0  0  0  0  0  0  0  0  0  0  0
   -1.0288   10.4953   -5.3429 N   0  0  0  0  0  0  0  0  0  0  0  0
   -1.4964    8.9587   -3.7937 O   0  0  0  0  0  0  0  0  0  0  0  0
   -4.3404    9.0411   -5.8802 S   0  0  0  0  0  0  0  0  0  0  0  0
   -5.1505   11.3036   -6.6144 C   0  0  0  0  0  0  0  0  0  0  0  0
   -3.7771   11.3541   -6.7958 N   0  0  0  0  0  0  0  0  0  0  0  0
   -5.6501   10.1507   -6.1454 C   0  0  0  0  0  0  0  0  0  0  0  0
   -3.2245   10.2576   -6.4511 C   0  0  0  0  0  0  0  0  0  0  0  0
   -1.7559    9.8701   -6.4706 C   0  0  0  0  0  0  0  0  0  0  0  0
   -0.9958   10.0248   -4.0780 C   0  0  0  0  0  0  0  0  0  0  0  0
   -0.3278   10.8784   -3.0071 C   0  0  0  0  0  0  0  0  0  0  0  0
    0.3680   10.1137   -1.8464 C   0  0  0  0  0  0  0  0  0  0  0  0
   -0.1847   11.2086   -0.8973 C   0  0  0  0  0  0  0  0  0  0  0  0
   -1.3003   11.4564   -1.9448 C   0  0  0  0  0  0  0  0  0  0  0  0
  1  5  1  0
  2  9  1  0
  2 10  1  0
  3 10  2  0
  4  7  1  0
  4  8  1  0
  5  6  1  0
  5  7  2  0
  6  8  2  0
  8  9  1  0
 10 11  1  0
 11 12  1  0
 11 14  1  0
 12 13  1  0
 13 14  1  0
M  END
$$$$
