CypD-x0820-pandda-model
     RDKit          3D

 14 14  0  0  0  0  0  0  0  0999 V2000
   -2.1568   11.1735    3.8366 C   0  0  0  0  0  0  0  0  0  0  0  0
    2.3251    9.9114   -6.3981 N   0  0  0  0  0  0  0  0  0  0  0  0
   -1.3259   10.7772    2.7695 O   0  0  0  0  0  0  0  0  0  0  0  0
   -1.6688   10.9802    1.5068 C   0  0  0  0  0  0  0  0  0  0  0  0
   -2.7103   11.5118    1.1981 O   0  0  0  0  0  0  0  0  0  0  0  0
   -0.6608   10.4941    0.4864 C   0  0  0  0  0  0  0  0  0  0  0  0
   -1.2740   10.3150   -0.7771 O   0  0  0  0  0  0  0  0  0  0  0  0
   -0.5267   10.1869   -1.8900 C   0  0  0  0  0  0  0  0  0  0  0  0
    0.8390    9.9298   -1.8646 C   0  0  0  0  0  0  0  0  0  0  0  0
    1.5383    9.8465   -3.0495 C   0  0  0  0  0  0  0  0  0  0  0  0
    0.9009   10.0186   -4.2690 C   0  0  0  0  0  0  0  0  0  0  0  0
    1.6631    9.9563   -5.4731 C   0  0  0  0  0  0  0  0  0  0  0  0
   -0.4652   10.2651   -4.2851 C   0  0  0  0  0  0  0  0  0  0  0  0
   -1.1733   10.3437   -3.1027 C   0  0  0  0  0  0  0  0  0  0  0  0
  1  3  1  0
  2 12  3  0
  3  4  1  0
  4  5  2  0
  4  6  1  0
  6  7  1  0
  7  8  1  0
  8  9  2  0
  8 14  1  0
  9 10  1  0
 10 11  2  0
 11 12  1  0
 11 13  1  0
 13 14  2  0
M  END
$$$$
