CypD-x0039-pandda-model
     RDKit          3D

 12 13  0  0  0  0  0  0  0  0999 V2000
  -22.3946   25.5295   -0.9175 C   0  0  0  0  0  0  0  0  0  0  0  0
  -23.0534   24.5351    1.9567 N   0  0  0  0  0  0  0  0  0  0  0  0
  -21.0847   23.8417    3.4225 S   0  0  0  0  0  0  0  0  0  0  0  0
  -22.1351   26.2495    0.4112 C   0  0  0  0  0  0  0  0  0  0  0  0
  -24.2859   21.1987    4.9688 N   0  0  0  0  0  0  0  0  0  0  0  0
  -21.9503   25.2638    1.5508 C   0  0  0  0  0  0  0  0  0  0  0  0
  -24.9471   22.5775    3.3720 N   0  0  0  0  0  0  0  0  0  0  0  0
  -20.8002   25.0424    2.2047 C   0  0  0  0  0  0  0  0  0  0  0  0
  -22.7796   23.7447    2.9409 C   0  0  0  0  0  0  0  0  0  0  0  0
  -23.6192   22.7963    3.6439 C   0  0  0  0  0  0  0  0  0  0  0  0
  -23.2287   21.9416    4.6300 C   0  0  0  0  0  0  0  0  0  0  0  0
  -25.2887   21.6260    4.1808 C   0  0  0  0  0  0  0  0  0  0  0  0
  1  4  1  0
  2  6  1  0
  2  9  2  0
  3  8  1  0
  3  9  1  0
  4  6  1  0
  5 11  1  0
  5 12  1  0
  6  8  2  0
  7 10  1  0
  7 12  2  0
  9 10  1  0
 10 11  2  0
M  END
$$$$
