CypD-x0295-pandda-model
     RDKit          3D

 15 16  0  0  0  0  0  0  0  0999 V2000
  -20.0871   26.3828    2.3393 C   0  0  0  0  0  0  0  0  0  0  0  0
  -23.3920   21.5668    4.8637 N   0  0  0  0  0  0  0  0  0  0  0  0
  -19.7877   25.0237    2.5789 O   0  0  0  0  0  0  0  0  0  0  0  0
  -20.6990   24.1952    3.1618 C   0  0  0  0  0  0  0  0  0  0  0  0
  -24.6360   25.4652    6.0487 N   0  0  0  0  0  0  0  0  0  0  0  0
  -20.2342   22.9112    3.4614 C   0  0  0  0  0  0  0  0  0  0  0  0
  -21.0475   21.9755    4.0532 C   0  0  0  0  0  0  0  0  0  0  0  0
  -22.3713   22.3178    4.3271 C   0  0  0  0  0  0  0  0  0  0  0  0
  -24.4678   22.3893    5.0251 C   0  0  0  0  0  0  0  0  0  0  0  0
  -24.1570   23.6371    4.5976 C   0  0  0  0  0  0  0  0  0  0  0  0
  -25.0066   24.8723    4.7417 C   0  0  0  0  0  0  0  0  0  0  0  0
  -25.8087   25.9289    6.8363 C   0  0  0  0  0  0  0  0  0  0  0  0
  -23.5830   26.5115    5.9286 C   0  0  0  0  0  0  0  0  0  0  0  0
  -22.8392   23.6056    4.0865 C   0  0  0  0  0  0  0  0  0  0  0  0
  -22.0000   24.5468    3.4693 C   0  0  0  0  0  0  0  0  0  0  0  0
  1  3  1  0
  2  8  1  0
  2  9  1  0
  3  4  1  0
  4  6  2  0
  4 15  1  0
  5 11  1  0
  5 12  1  0
  5 13  1  0
  6  7  1  0
  7  8  2  0
  8 14  1  0
  9 10  2  0
 10 11  1  0
 10 14  1  0
 14 15  2  0
M  CHG  1   5   1
M  END
$$$$
