CypD-x0601-pandda-model
     RDKit          3D

 14 15  0  0  0  0  0  0  0  0999 V2000
  -21.1160   23.3186    3.3214 C   0  0  0  0  0  0  0  0  0  0  0  0
  -22.4384   23.6495    3.4420 N   0  0  0  0  0  0  0  0  0  0  0  0
  -20.6996   22.2045    3.5942 O   0  0  0  0  0  0  0  0  0  0  0  0
  -23.5759   22.8352    3.6717 C   0  0  0  0  0  0  0  0  0  0  0  0
  -24.9804   21.2464    4.1556 N   0  0  0  0  0  0  0  0  0  0  0  0
  -23.6804   21.6130    4.2304 C   0  0  0  0  0  0  0  0  0  0  0  0
  -25.7295   22.2029    3.5352 N   0  0  0  0  0  0  0  0  0  0  0  0
  -24.8803   23.1572    3.2931 C   0  0  0  0  0  0  0  0  0  0  0  0
  -18.4747   26.2625    1.7197 N   0  0  0  0  0  0  0  0  0  0  0  0
  -20.2113   24.3166    2.8015 C   0  0  0  0  0  0  0  0  0  0  0  0
  -19.3408   24.0394    1.7583 C   0  0  0  0  0  0  0  0  0  0  0  0
  -18.5131   25.0249    1.2606 C   0  0  0  0  0  0  0  0  0  0  0  0
  -19.3106   26.5364    2.7056 C   0  0  0  0  0  0  0  0  0  0  0  0
  -20.1711   25.6205    3.2752 C   0  0  0  0  0  0  0  0  0  0  0  0
  1  2  1  0
  1  3  2  0
  1 10  1  0
  2  4  1  0
  4  6  2  0
  4  8  1  0
  5  6  1  0
  5  7  1  0
  7  8  2  0
  9 12  2  0
  9 13  1  0
 10 11  2  0
 10 14  1  0
 11 12  1  0
 13 14  2  0
M  END
$$$$
