CypD-x0936-pandda-model
     RDKit          3D

 13 14  0  0  0  0  0  0  0  0999 V2000
  -21.1820   22.5780    3.6670 C   0  0  0  0  0  0  0  0  0  0  0  0
  -22.5110   22.7020    4.0220 N   0  0  0  0  0  0  0  0  0  0  0  0
  -20.6330   21.4970    3.7910 O   0  0  0  0  0  0  0  0  0  0  0  0
  -23.2390   21.5940    4.7320 C   0  0  0  0  0  0  0  0  0  0  0  0
  -19.4920   25.6930    2.8240 N   0  0  0  0  0  0  0  0  0  0  0  0
  -25.3470   22.8050    4.3790 O   0  0  0  0  0  0  0  0  0  0  0  0
  -24.7440   21.5380    4.4010 C   0  0  0  0  0  0  0  0  0  0  0  0
  -18.9940   24.8280    1.9230 N   0  0  0  0  0  0  0  0  0  0  0  0
  -24.7310   23.7460    3.5570 C   0  0  0  0  0  0  0  0  0  0  0  0
  -23.2800   23.9810    3.9880 C   0  0  0  0  0  0  0  0  0  0  0  0
  -20.4060   23.6590    3.1120 C   0  0  0  0  0  0  0  0  0  0  0  0
  -20.3190   24.9930    3.5300 C   0  0  0  0  0  0  0  0  0  0  0  0
  -19.5310   23.6110    2.0710 C   0  0  0  0  0  0  0  0  0  0  0  0
  1  2  1  0
  1  3  2  0
  1 11  1  0
  2  4  1  0
  2 10  1  0
  4  7  1  0
  5  8  1  0
  5 12  2  0
  6  7  1  0
  6  9  1  0
  8 13  1  0
  9 10  1  0
 11 12  1  0
 11 13  2  0
M  END
$$$$
