CypD-x0987-pandda-model
     RDKit          3D

 14 15  0  0  0  0  0  0  0  0999 V2000
  -24.3765   21.0813    4.8429 C   0  0  0  0  0  0  0  0  0  0  0  0
  -25.7338   20.5369    4.5236 N   0  0  0  0  0  0  0  0  0  0  0  0
  -24.1366   24.0196    2.9464 O   0  0  0  0  0  0  0  0  0  0  0  0
  -24.0106   22.3436    4.0536 C   0  0  0  0  0  0  0  0  0  0  0  0
  -24.8516   23.0544    3.4002 N   0  0  0  0  0  0  0  0  0  0  0  0
  -22.8897   23.8825    3.3154 C   0  0  0  0  0  0  0  0  0  0  0  0
  -22.7509   22.8035    4.0086 N   0  0  0  0  0  0  0  0  0  0  0  0
  -21.9085   24.8817    2.9573 C   0  0  0  0  0  0  0  0  0  0  0  0
  -22.2234   26.2428    3.0066 C   0  0  0  0  0  0  0  0  0  0  0  0
  -21.3031   27.2126    2.6473 C   0  0  0  0  0  0  0  0  0  0  0  0
  -20.0325   26.8583    2.2239 C   0  0  0  0  0  0  0  0  0  0  0  0
  -19.6835   25.5217    2.1680 C   0  0  0  0  0  0  0  0  0  0  0  0
  -20.6129   24.5717    2.5411 C   0  0  0  0  0  0  0  0  0  0  0  0
  -20.2358   23.3267    2.4848 F   0  0  0  0  0  0  0  0  0  0  0  0
  1  2  1  0
  1  4  1  0
  3  5  1  0
  3  6  1  0
  4  5  2  0
  4  7  1  0
  6  7  2  0
  6  8  1  0
  8  9  2  0
  8 13  1  0
  9 10  1  0
 10 11  2  0
 11 12  1  0
 12 13  2  0
 13 14  1  0
M  CHG  1   2   1
M  END
$$$$
