CypD-x0330-pandda-model
     RDKit          3D

 15 16  0  0  1  0  0  0  0  0999 V2000
  -22.7866   29.3329    6.0162 C   0  0  0  0  0  0  0  0  0  0  0  0
  -24.5147   26.4263    4.6139 N   0  0  1  0  0  0  0  0  0  0  0  0
  -23.9790   28.6123    6.1037 O   0  0  0  0  0  0  0  0  0  0  0  0
  -25.0005   23.1230    4.4767 S   0  0  0  0  0  0  0  0  0  0  0  0
  -23.8567   27.3774    6.7644 C   0  0  2  0  0  0  0  0  0  0  0  0
  -22.6522   22.1959    4.1121 N   0  0  0  0  0  0  0  0  0  0  0  0
  -23.4945   26.3210    5.7084 C   0  0  0  0  0  0  0  0  0  0  0  0
  -24.1393   25.6256    3.4161 C   0  0  0  0  0  0  0  0  0  0  0  0
  -23.8053   24.1867    3.7780 C   0  0  0  0  0  0  0  0  0  0  0  0
  -22.6593   23.5037    3.6578 C   0  0  0  0  0  0  0  0  0  0  0  0
  -23.7902   21.8605    4.5797 C   0  0  0  0  0  0  0  0  0  0  0  0
  -25.9265   26.2340    5.0802 C   0  0  0  0  0  0  0  0  0  0  0  0
  -26.0251   26.0179    6.5987 C   0  0  0  0  0  0  0  0  0  0  0  0
  -25.2247   27.0572    7.4131 C   0  0  1  0  0  0  0  0  0  0  0  0
  -25.0553   26.5599    8.8567 C   0  0  0  0  0  0  0  0  0  0  0  0
  1  3  1  0
  2  7  1  0
  2  8  1  6
  2 12  1  0
  5  3  1  6
  4  9  1  0
  4 11  1  0
  5  7  1  0
  5 14  1  0
  6 10  1  0
  6 11  2  0
  8  9  1  0
  9 10  2  0
 12 13  1  0
 13 14  1  0
 14 15  1  1
M  CHG  1   2   1
M  END
$$$$
