CypD-x0987-pandda-model
     RDKit          3D

 14 15  0  0  0  0  0  0  0  0999 V2000
  -25.1980   21.1130    5.2850 C   0  0  0  0  0  0  0  0  0  0  0  0
  -26.2850   20.2040    4.8050 N   0  0  0  0  0  0  0  0  0  0  0  0
  -24.7910   23.6270    2.8750 O   0  0  0  0  0  0  0  0  0  0  0  0
  -24.7700   22.1640    4.2570 C   0  0  0  0  0  0  0  0  0  0  0  0
  -25.5590   22.7730    3.4540 N   0  0  0  0  0  0  0  0  0  0  0  0
  -23.5650   23.5170    3.3170 C   0  0  0  0  0  0  0  0  0  0  0  0
  -23.4930   22.5510    4.1660 N   0  0  0  0  0  0  0  0  0  0  0  0
  -22.4890   24.3760    2.8720 C   0  0  0  0  0  0  0  0  0  0  0  0
  -21.1680   23.9210    2.8690 C   0  0  0  0  0  0  0  0  0  0  0  0
  -20.1190   24.7240    2.4550 C   0  0  0  0  0  0  0  0  0  0  0  0
  -20.3510   26.0250    2.0420 C   0  0  0  0  0  0  0  0  0  0  0  0
  -21.6440   26.5150    2.0360 C   0  0  0  0  0  0  0  0  0  0  0  0
  -22.6780   25.6920    2.4430 C   0  0  0  0  0  0  0  0  0  0  0  0
  -23.8820   26.1940    2.4240 F   0  0  0  0  0  0  0  0  0  0  0  0
  1  2  1  0
  1  4  1  0
  3  5  1  0
  3  6  1  0
  4  5  2  0
  4  7  1  0
  6  7  2  0
  6  8  1  0
  8  9  2  0
  8 13  1  0
  9 10  1  0
 10 11  2  0
 11 12  1  0
 12 13  2  0
 13 14  1  0
M  CHG  1   2   1
M  END
$$$$
