CypD-x0644-pandda-model
     RDKit          3D

 13 14  0  0  1  0  0  0  0  0999 V2000
  -10.1800   -0.8930   21.9620 C   0  0  0  0  0  0  0  0  0  0  0  0
  -10.2000   -0.3970   23.3610 N   0  0  0  0  0  0  0  0  0  0  0  0
   -8.9250    0.2570   23.8090 C   0  0  2  0  0  0  0  0  0  0  0  0
   -7.5760    0.5980   25.8040 N   0  0  0  0  0  0  0  0  0  0  0  0
   -7.7580   -0.7290   23.8150 C   0  0  0  0  0  0  0  0  0  0  0  0
   -6.7630   -0.1600   24.8240 C   0  0  0  0  0  0  0  0  0  0  0  0
   -8.9560    0.7520   25.2710 C   0  0  0  0  0  0  0  0  0  0  0  0
  -10.8750    0.1260   21.0830 C   0  0  0  0  0  0  0  0  0  0  0  0
  -10.1820    0.7650   20.0640 C   0  0  0  0  0  0  0  0  0  0  0  0
  -10.8380    1.6480   19.2230 C   0  0  0  0  0  0  0  0  0  0  0  0
  -12.1790    1.9220   19.4120 C   0  0  0  0  0  0  0  0  0  0  0  0
  -12.8720    1.3000   20.4330 C   0  0  0  0  0  0  0  0  0  0  0  0
  -12.2260    0.3980   21.2600 C   0  0  0  0  0  0  0  0  0  0  0  0
  1  2  1  0
  1  8  1  0
  3  2  1  1
  3  5  1  0
  3  7  1  0
  4  6  1  0
  4  7  1  0
  5  6  1  0
  8  9  2  0
  8 13  1  0
  9 10  1  0
 10 11  2  0
 11 12  1  0
 12 13  2  0
M  CHG  2   2   1   4   1
M  END
$$$$
