CypD-x0130-pandda-model
     RDKit          3D

 15 16  0  0  1  0  0  0  0  0999 V2000
  -21.3751   23.0473    3.4772 C   0  0  0  0  0  0  0  0  0  0  0  0
  -21.1372   24.2472    2.8747 N   0  0  0  0  0  0  0  0  0  0  0  0
  -20.4827   22.2182    3.5484 O   0  0  0  0  0  0  0  0  0  0  0  0
  -24.8212   21.8824    5.0722 S   0  0  0  0  0  0  0  0  0  0  0  0
  -19.9195   24.7653    2.2125 C   0  0  2  0  0  0  0  0  0  0  0  0
  -20.2423   23.6870   -0.0282 N   0  0  0  0  0  0  0  0  0  0  0  0
  -21.8736   24.3815   -1.3538 O   0  0  0  0  0  0  0  0  0  0  0  0
  -20.2901   26.0823    1.5125 C   0  0  0  0  0  0  0  0  0  0  0  0
  -23.6209   23.8915    4.0632 N   0  0  0  0  0  0  0  0  0  0  0  0
  -21.3523   25.8740    0.4050 C   0  0  0  0  0  0  0  0  0  0  0  0
  -21.1688   24.5943   -0.4005 C   0  0  0  0  0  0  0  0  0  0  0  0
  -19.3588   23.7888    1.1590 C   0  0  0  0  0  0  0  0  0  0  0  0
  -22.7088   22.8182    4.0158 C   0  0  0  0  0  0  0  0  0  0  0  0
  -23.1987   21.6585    4.5067 C   0  0  0  0  0  0  0  0  0  0  0  0
  -24.7218   23.5595    4.6080 C   0  0  0  0  0  0  0  0  0  0  0  0
  1  2  1  0
  1  3  2  0
  1 13  1  0
  5  2  1  6
  4 14  1  0
  4 15  1  0
  5  8  1  0
  5 12  1  0
  6 11  1  0
  6 12  1  0
  7 11  2  0
  8 10  1  0
  9 13  1  0
  9 15  2  0
 10 11  1  0
 13 14  2  0
M  END
$$$$
