CypD-x0065-pandda-model
     RDKit          3D

 17 18  0  0  0  0  0  0  0  0999 V2000
  -20.1755   25.6836    3.0967 C   0  0  0  0  0  0  0  0  0  0  0  0
  -20.8268   23.2937    3.1411 N   0  0  0  0  0  0  0  0  0  0  0  0
  -25.8076   22.4542    2.9087 O   0  0  0  0  0  0  0  0  0  0  0  0
  -20.1156   24.3315    2.3774 C   0  0  0  0  0  0  0  0  0  0  0  0
  -24.6668   22.5904    4.8113 N   0  0  0  0  0  0  0  0  0  0  0  0
  -22.1587   23.1874    3.3002 C   0  0  0  0  0  0  0  0  0  0  0  0
  -28.9212   24.8338    4.0908 N   0  0  0  0  0  0  0  0  0  0  0  0
  -22.3818   22.1110    4.0832 C   0  0  0  0  0  0  0  0  0  0  0  0
  -20.1779   22.3094    3.7909 N   0  0  0  0  0  0  0  0  0  0  0  0
  -23.6946   21.5165    4.5504 C   0  0  0  0  0  0  0  0  0  0  0  0
  -25.7592   22.8809    4.0498 C   0  0  0  0  0  0  0  0  0  0  0  0
  -26.8701   23.6375    4.5903 C   0  0  0  0  0  0  0  0  0  0  0  0
  -27.0858   23.8027    5.9532 C   0  0  0  0  0  0  0  0  0  0  0  0
  -28.2177   24.4795    6.3523 C   0  0  0  0  0  0  0  0  0  0  0  0
  -29.0952   24.9618    5.3967 C   0  0  0  0  0  0  0  0  0  0  0  0
  -27.8109   24.2039    3.7324 C   0  0  0  0  0  0  0  0  0  0  0  0
  -21.1130   21.6219    4.3712 C   0  0  0  0  0  0  0  0  0  0  0  0
  1  4  1  0
  2  4  1  0
  2  6  1  0
  2  9  1  0
  3 11  2  0
  5 10  1  0
  5 11  1  0
  6  8  2  0
  7 15  2  0
  7 16  1  0
  8 10  1  0
  8 17  1  0
  9 17  2  0
 11 12  1  0
 12 13  1  0
 12 16  2  0
 13 14  2  0
 14 15  1  0
M  END
$$$$
