CypD-x0216-pandda-model
     RDKit          3D

 15 16  0  0  0  0  0  0  0  0999 V2000
  -23.1040   24.2770    3.0550 C   0  0  0  0  0  0  0  0  0  0  0  0
  -22.9540   22.0940    4.1730 N   0  0  0  0  0  0  0  0  0  0  0  0
  -26.7440   23.3460    2.1780 O   0  0  0  0  0  0  0  0  0  0  0  0
  -25.3560   21.3020    4.5060 S   0  0  0  0  0  0  0  0  0  0  0  0
  -23.7810   23.0580    3.6470 C   0  0  0  0  0  0  0  0  0  0  0  0
  -26.8820   24.4250    4.1540 N   0  0  0  0  0  0  0  0  0  0  0  0
  -26.8730   25.5610    7.6520 O   0  0  0  0  0  0  0  0  0  0  0  0
  -23.6330   21.1290    4.6570 C   0  0  0  0  0  0  0  0  0  0  0  0
  -27.6570   26.6130    5.8480 N   0  0  0  0  0  0  0  0  0  0  0  0
  -25.1130   22.8290    3.7050 C   0  0  0  0  0  0  0  0  0  0  0  0
  -26.2780   23.5460    3.2900 C   0  0  0  0  0  0  0  0  0  0  0  0
  -28.0450   25.2780    3.7660 C   0  0  0  0  0  0  0  0  0  0  0  0
  -27.9500   26.6830    4.3920 C   0  0  0  0  0  0  0  0  0  0  0  0
  -27.0480   25.5640    6.4570 C   0  0  0  0  0  0  0  0  0  0  0  0
  -26.5820   24.3590    5.6360 C   0  0  0  0  0  0  0  0  0  0  0  0
  1  5  1  0
  2  5  1  0
  2  8  2  0
  3 11  2  0
  4  8  1  0
  4 10  1  0
  5 10  2  0
  6 11  1  0
  6 12  1  0
  6 15  1  0
  7 14  2  0
  9 13  1  0
  9 14  1  0
 10 11  1  0
 12 13  1  0
 14 15  1  0
M  END
$$$$
