CypD-x0330-pandda-model
     RDKit          3D

 15 16  0  0  1  0  0  0  0  0999 V2000
  -25.8679   24.6042    9.7644 C   0  0  0  0  0  0  0  0  0  0  0  0
  -23.9801   26.1547    6.0023 N   0  0  1  0  0  0  0  0  0  0  0  0
  -26.0460   25.8132    9.0888 O   0  0  0  0  0  0  0  0  0  0  0  0
  -25.2751   23.0319    5.0852 S   0  0  0  0  0  0  0  0  0  0  0  0
  -24.9419   26.2380    8.3495 C   0  0  1  0  0  0  0  0  0  0  0  0
  -23.1911   21.9879    4.0458 N   0  0  0  0  0  0  0  0  0  0  0  0
  -25.0374   25.6415    6.9391 C   0  0  0  0  0  0  0  0  0  0  0  0
  -24.1825   25.6188    4.6258 C   0  0  0  0  0  0  0  0  0  0  0  0
  -24.0211   24.1113    4.5217 C   0  0  0  0  0  0  0  0  0  0  0  0
  -23.0407   23.3648    3.9931 C   0  0  0  0  0  0  0  0  0  0  0  0
  -24.2926   21.6657    4.6017 C   0  0  0  0  0  0  0  0  0  0  0  0
  -23.9737   27.6446    5.9425 C   0  0  0  0  0  0  0  0  0  0  0  0
  -23.8717   28.2808    7.3319 C   0  0  0  0  0  0  0  0  0  0  0  0
  -24.9635   27.7751    8.2907 C   0  0  2  0  0  0  0  0  0  0  0  0
  -24.8071   28.4258    9.6751 C   0  0  0  0  0  0  0  0  0  0  0  0
  1  3  1  0
  2  7  1  0
  2  8  1  6
  2 12  1  0
  5  3  1  1
  4  9  1  0
  4 11  1  0
  5  7  1  0
  5 14  1  0
  6 10  1  0
  6 11  2  0
  8  9  1  0
  9 10  2  0
 12 13  1  0
 13 14  1  0
 14 15  1  1
M  CHG  1   2   1
M  END
$$$$
