CypD-x0658-pandda-model
     RDKit          3D

 14 15  0  0  0  0  0  0  0  0999 V2000
  -27.7029   20.2489    6.2566 C   0  0  0  0  0  0  0  0  0  0  0  0
  -26.3926   20.8607    5.9062 N   0  0  0  0  0  0  0  0  0  0  0  0
  -26.3475   21.3108    4.5155 C   0  0  0  0  0  0  0  0  0  0  0  0
  -22.8196   22.1595    3.9506 N   0  0  0  0  0  0  0  0  0  0  0  0
  -25.0163   21.9903    4.2751 C   0  0  0  0  0  0  0  0  0  0  0  0
  -23.3685   23.4012    3.9163 N   0  0  0  0  0  0  0  0  0  0  0  0
  -23.7924   21.3395    4.1792 C   0  0  0  0  0  0  0  0  0  0  0  0
  -24.7122   23.2971    4.1013 C   0  0  0  0  0  0  0  0  0  0  0  0
  -22.5984   24.5775    3.6728 C   0  0  0  0  0  0  0  0  0  0  0  0
  -21.4426   24.5220    2.8955 C   0  0  0  0  0  0  0  0  0  0  0  0
  -20.6872   25.6565    2.6592 C   0  0  0  0  0  0  0  0  0  0  0  0
  -21.0712   26.8678    3.2025 C   0  0  0  0  0  0  0  0  0  0  0  0
  -22.2083   26.9387    3.9871 C   0  0  0  0  0  0  0  0  0  0  0  0
  -22.9658   25.8050    4.2204 C   0  0  0  0  0  0  0  0  0  0  0  0
  1  2  1  0
  2  3  1  0
  3  5  1  0
  4  6  1  0
  4  7  2  0
  5  7  1  0
  5  8  2  0
  6  8  1  0
  6  9  1  0
  9 10  2  0
  9 14  1  0
 10 11  1  0
 11 12  2  0
 12 13  1  0
 13 14  2  0
M  CHG  1   2   1
M  END
$$$$
