CypD-x0446-pandda-model
     RDKit          3D

 11 12  0  0  0  0  0  0  0  0999 V2000
  -25.3988   22.0233    3.5613 C   0  0  0  0  0  0  0  0  0  0  0  0
  -25.4963   20.7635    4.0390 N   0  0  0  0  0  0  0  0  0  0  0  0
  -26.2756   22.3755    2.7897 O   0  0  0  0  0  0  0  0  0  0  0  0
  -24.2893   22.9158    3.8542 C   0  0  0  0  0  0  0  0  0  0  0  0
  -23.1081   24.6165    4.5444 N   0  0  0  0  0  0  0  0  0  0  0  0
  -24.2545   23.9515    4.7382 C   0  0  0  0  0  0  0  0  0  0  0  0
  -23.1205   22.9162    3.1436 N   0  0  0  0  0  0  0  0  0  0  0  0
  -22.4830   23.9666    3.5399 C   0  0  0  0  0  0  0  0  0  0  0  0
  -21.2052   24.4645    2.8795 C   0  0  0  0  0  0  0  0  0  0  0  0
  -20.2980   25.4730    3.5251 C   0  0  0  0  0  0  0  0  0  0  0  0
  -19.8619   24.0507    3.3872 C   0  0  0  0  0  0  0  0  0  0  0  0
  1  2  1  0
  1  3  2  0
  1  4  1  0
  4  6  2  0
  4  7  1  0
  5  6  1  0
  5  8  1  0
  7  8  2  0
  8  9  1  0
  9 10  1  0
  9 11  1  0
 10 11  1  0
M  END
$$$$
