CypD-x0042-pandda-model
     RDKit          3D

 11 11  0  0  0  0  0  0  0  0999 V2000
  -23.7512   22.0738    4.3203 C   0  0  0  0  0  0  0  0  0  0  0  0
  -23.8474   21.1123    5.2503 N   0  0  0  0  0  0  0  0  0  0  0  0
  -24.7873   22.4498    3.8048 O   0  0  0  0  0  0  0  0  0  0  0  0
  -22.4709   22.5776    3.8942 C   0  0  0  0  0  0  0  0  0  0  0  0
  -20.2436   22.6940    3.6051 N   0  0  0  0  0  0  0  0  0  0  0  0
  -21.4052   26.5822    2.4542 O   0  0  0  0  0  0  0  0  0  0  0  0
  -21.2072   22.0685    4.2086 C   0  0  0  0  0  0  0  0  0  0  0  0
  -20.8537   23.6715    2.8977 N   0  0  0  0  0  0  0  0  0  0  0  0
  -20.1107   24.6038    2.0225 C   0  0  0  0  0  0  0  0  0  0  0  0
  -20.1287   26.0402    2.5577 C   0  0  0  0  0  0  0  0  0  0  0  0
  -22.1830   23.6107    3.0556 C   0  0  0  0  0  0  0  0  0  0  0  0
  1  2  1  0
  1  3  2  0
  1  4  1  0
  4  7  1  0
  4 11  2  0
  5  7  2  0
  5  8  1  0
  6 10  1  0
  8  9  1  0
  8 11  1  0
  9 10  1  0
M  END
$$$$
