CypD-x0426-pandda-model
     RDKit          3D

 14 14  0  0  0  0  0  0  0  0999 V2000
  -21.6029   24.3373   -0.2689 C   0  0  0  0  0  0  0  0  0  0  0  0
  -21.4587   24.0412    2.7593 N   0  0  0  0  0  0  0  0  0  0  0  0
  -23.3846   25.1913    2.7352 O   0  0  0  0  0  0  0  0  0  0  0  0
  -21.1124   25.4277    0.7010 C   0  0  0  0  0  0  0  0  0  0  0  0
  -23.9280   21.2397    4.6729 N   0  0  0  0  0  0  0  0  0  0  0  0
  -20.5400   24.9320    2.0494 C   0  0  0  0  0  0  0  0  0  0  0  0
  -22.9170   21.9509    4.1335 N   0  0  0  0  0  0  0  0  0  0  0  0
  -19.2706   24.1141    1.8260 C   0  0  0  0  0  0  0  0  0  0  0  0
  -20.2241   26.1131    2.9689 C   0  0  0  0  0  0  0  0  0  0  0  0
  -22.7860   24.1797    3.0600 C   0  0  0  0  0  0  0  0  0  0  0  0
  -23.4689   23.0869    3.7336 C   0  0  0  0  0  0  0  0  0  0  0  0
  -24.8413   23.0829    4.0115 C   0  0  0  0  0  0  0  0  0  0  0  0
  -25.0998   21.8958    4.5897 C   0  0  0  0  0  0  0  0  0  0  0  0
  -26.4031   21.3104    5.0973 C   0  0  0  0  0  0  0  0  0  0  0  0
  1  4  1  0
  2  6  1  0
  2 10  1  0
  3 10  2  0
  4  6  1  0
  5  7  1  0
  5 13  1  0
  6  8  1  0
  6  9  1  0
  7 11  2  0
 10 11  1  0
 11 12  1  0
 12 13  2  0
 13 14  1  0
M  END
$$$$
