CypD-x0862-pandda-model
     RDKit          3D

 15 16  0  0  0  0  0  0  0  0999 V2000
  -27.8599   26.4078    0.5149 C   0  0  0  0  0  0  0  0  0  0  0  0
  -26.3862   26.2006    0.5059 N   0  0  0  0  0  0  0  0  0  0  0  0
  -26.5193   23.9963    0.9605 O   0  0  0  0  0  0  0  0  0  0  0  0
  -25.5992   27.4622    0.3310 C   0  0  0  0  0  0  0  0  0  0  0  0
  -20.2628   23.9613    0.7092 N   0  0  0  0  0  0  0  0  0  0  0  0
  -25.8080   24.9688    0.7509 C   0  0  0  0  0  0  0  0  0  0  0  0
  -24.3766   24.7893    0.7560 C   0  0  0  0  0  0  0  0  0  0  0  0
  -23.6640   24.6867   -0.4349 C   0  0  0  0  0  0  0  0  0  0  0  0
  -22.3083   24.4303   -0.4399 C   0  0  0  0  0  0  0  0  0  0  0  0
  -21.6105   24.2804    0.7487 C   0  0  0  0  0  0  0  0  0  0  0  0
  -19.5270   23.6666    1.9574 C   0  0  0  0  0  0  0  0  0  0  0  0
  -20.0625   24.5352    3.0954 C   0  0  0  0  0  0  0  0  0  0  0  0
  -21.5684   24.3259    3.2762 C   0  0  0  0  0  0  0  0  0  0  0  0
  -22.3000   24.4410    1.9511 C   0  0  0  0  0  0  0  0  0  0  0  0
  -23.6612   24.6816    1.9472 C   0  0  0  0  0  0  0  0  0  0  0  0
  1  2  1  0
  2  4  1  0
  2  6  1  0
  3  6  2  0
  5 10  1  0
  5 11  1  0
  6  7  1  0
  7  8  1  0
  7 15  2  0
  8  9  2  0
  9 10  1  0
 10 14  2  0
 11 12  1  0
 12 13  1  0
 13 14  1  0
 14 15  1  0
M  END
$$$$
