CypD-x0826-pandda-model
     RDKit          3D

 14 15  0  0  1  0  0  0  0  0999 V2000
  -27.2374   21.0883    7.0532 C   0  0  0  0  0  0  0  0  0  0  0  0
  -27.3183   19.6967    5.0948 N   0  0  0  0  0  0  0  0  0  0  0  0
  -27.4072   21.0746    5.5384 C   0  0  2  0  0  0  0  0  0  0  0  0
  -24.4674   22.7165    4.1481 N   0  0  0  0  0  0  0  0  0  0  0  0
  -26.3106   21.8460    4.8213 C   0  0  0  0  0  0  0  0  0  0  0  0
  -25.4532   22.9694    3.2481 N   0  0  0  0  0  0  0  0  0  0  0  0
  -25.0175   22.0071    5.1432 C   0  0  0  0  0  0  0  0  0  0  0  0
  -26.5558   22.4523    3.6568 N   0  0  0  0  0  0  0  0  0  0  0  0
  -23.0844   22.9998    3.9324 C   0  0  0  0  0  0  0  0  0  0  0  0
  -22.6874   24.0456    3.1009 C   0  0  0  0  0  0  0  0  0  0  0  0
  -21.3476   24.3034    2.8755 C   0  0  0  0  0  0  0  0  0  0  0  0
  -20.3771   23.5240    3.4786 C   0  0  0  0  0  0  0  0  0  0  0  0
  -20.7505   22.4862    4.3141 C   0  0  0  0  0  0  0  0  0  0  0  0
  -22.0917   22.2297    4.5345 C   0  0  0  0  0  0  0  0  0  0  0  0
  3  1  1  1
  2  3  1  0
  3  5  1  0
  4  6  1  0
  4  7  1  0
  4  9  1  0
  5  7  2  0
  5  8  1  0
  6  8  2  0
  9 10  2  0
  9 14  1  0
 10 11  1  0
 11 12  2  0
 12 13  1  0
 13 14  2  0
M  CHG  1   2   1
M  END
$$$$
