CypD-x0658-pandda-model
     RDKit          3D

 14 15  0  0  0  0  0  0  0  0999 V2000
  -28.4606   19.8477    5.1701 C   0  0  0  0  0  0  0  0  0  0  0  0
  -27.0057   19.9997    4.9261 N   0  0  0  0  0  0  0  0  0  0  0  0
  -26.3477   21.0859    5.6822 C   0  0  0  0  0  0  0  0  0  0  0  0
  -23.3308   21.7400    3.6615 N   0  0  0  0  0  0  0  0  0  0  0  0
  -25.1626   21.6529    4.9239 C   0  0  0  0  0  0  0  0  0  0  0  0
  -23.5898   22.9831    4.1437 N   0  0  0  0  0  0  0  0  0  0  0  0
  -24.2424   20.9627    4.1474 C   0  0  0  0  0  0  0  0  0  0  0  0
  -24.7234   22.9315    4.8907 C   0  0  0  0  0  0  0  0  0  0  0  0
  -22.7352   24.1033    3.8896 C   0  0  0  0  0  0  0  0  0  0  0  0
  -21.4692   23.9172    3.3310 C   0  0  0  0  0  0  0  0  0  0  0  0
  -20.6284   24.9859    3.0796 C   0  0  0  0  0  0  0  0  0  0  0  0
  -21.0317   26.2695    3.3959 C   0  0  0  0  0  0  0  0  0  0  0  0
  -22.2754   26.4753    3.9636 C   0  0  0  0  0  0  0  0  0  0  0  0
  -23.1195   25.4063    4.2041 C   0  0  0  0  0  0  0  0  0  0  0  0
  1  2  1  0
  2  3  1  0
  3  5  1  0
  4  6  1  0
  4  7  2  0
  5  7  1  0
  5  8  2  0
  6  8  1  0
  6  9  1  0
  9 10  2  0
  9 14  1  0
 10 11  1  0
 11 12  2  0
 12 13  1  0
 13 14  2  0
M  CHG  1   2   1
M  END
$$$$
