CypD-x0601-pandda-model
     RDKit          3D

 14 15  0  0  0  0  0  0  0  0999 V2000
  -20.6150   23.3770    3.2070 C   0  0  0  0  0  0  0  0  0  0  0  0
  -21.9370   23.5630    3.5340 N   0  0  0  0  0  0  0  0  0  0  0  0
  -20.0760   22.3070    3.4250 O   0  0  0  0  0  0  0  0  0  0  0  0
  -22.8130   22.5980    4.0990 C   0  0  0  0  0  0  0  0  0  0  0  0
  -23.5820   20.8870    5.1810 N   0  0  0  0  0  0  0  0  0  0  0  0
  -22.4630   21.5680    4.8890 C   0  0  0  0  0  0  0  0  0  0  0  0
  -24.6780   21.4190    4.5750 N   0  0  0  0  0  0  0  0  0  0  0  0
  -24.2000   22.4680    3.9610 C   0  0  0  0  0  0  0  0  0  0  0  0
  -18.3520   26.4010    1.2140 N   0  0  0  0  0  0  0  0  0  0  0  0
  -19.8620   24.4220    2.5520 C   0  0  0  0  0  0  0  0  0  0  0  0
  -19.0190   24.1290    1.4910 C   0  0  0  0  0  0  0  0  0  0  0  0
  -18.3010   25.1270    0.8680 C   0  0  0  0  0  0  0  0  0  0  0  0
  -19.1570   26.6910    2.2230 C   0  0  0  0  0  0  0  0  0  0  0  0
  -19.9100   25.7610    2.9150 C   0  0  0  0  0  0  0  0  0  0  0  0
  1  2  1  0
  1  3  2  0
  1 10  1  0
  2  4  1  0
  4  6  2  0
  4  8  1  0
  5  6  1  0
  5  7  1  0
  7  8  2  0
  9 12  2  0
  9 13  1  0
 10 11  2  0
 10 14  1  0
 11 12  1  0
 13 14  2  0
M  END
$$$$
