CypD-x0627-pandda-model
     RDKit          3D

 14 15  0  0  0  0  0  0  0  0999 V2000
  -27.3300   19.4480    4.6360 C   0  0  0  0  0  0  0  0  0  0  0  0
  -22.8220   21.5520    4.7190 N   0  0  0  0  0  0  0  0  0  0  0  0
  -25.2890   19.4950    2.9960 O   0  0  0  0  0  0  0  0  0  0  0  0
  -26.1730   20.4130    3.6870 S   0  0  0  0  0  0  0  0  0  0  0  0
  -25.3130   21.3770    4.9360 C   0  0  0  0  0  0  0  0  0  0  0  0
  -24.0510   23.0010    3.5720 N   0  0  0  0  0  0  0  0  0  0  0  0
  -26.9720   21.2810    2.8460 O   0  0  0  0  0  0  0  0  0  0  0  0
  -24.0570   22.0050    4.3860 C   0  0  0  0  0  0  0  0  0  0  0  0
  -21.9490   22.3450    4.0520 C   0  0  0  0  0  0  0  0  0  0  0  0
  -20.5570   22.3860    3.9790 C   0  0  0  0  0  0  0  0  0  0  0  0
  -19.9790   23.3400    3.1700 C   0  0  0  0  0  0  0  0  0  0  0  0
  -20.7640   24.2530    2.4570 C   0  0  0  0  0  0  0  0  0  0  0  0
  -22.1370   24.2120    2.5470 C   0  0  0  0  0  0  0  0  0  0  0  0
  -22.7320   23.2420    3.3490 C   0  0  0  0  0  0  0  0  0  0  0  0
  1  4  1  0
  2  8  1  0
  2  9  1  0
  3  4  2  0
  4  5  1  0
  4  7  2  0
  5  8  1  0
  6  8  2  0
  6 14  1  0
  9 10  2  0
  9 14  1  0
 10 11  1  0
 11 12  2  0
 12 13  1  0
 13 14  2  0
M  END
$$$$
