CypD-x0314-pandda-model
     RDKit          3D

 14 15  0  0  0  0  0  0  0  0999 V2000
  -27.6845   20.4010    4.8386 C   0  0  0  0  0  0  0  0  0  0  0  0
  -25.8197   22.0373    4.5410 N   0  0  0  0  0  0  0  0  0  0  0  0
  -20.1787   22.2134    3.6378 O   0  0  0  0  0  0  0  0  0  0  0  0
  -27.0926   21.7552    5.2382 C   0  0  0  0  0  0  0  0  0  0  0  0
  -22.2882   22.0787    4.3032 N   0  0  0  0  0  0  0  0  0  0  0  0
  -24.5979   21.7107    5.0077 C   0  0  0  0  0  0  0  0  0  0  0  0
  -25.7322   22.7950    3.4214 N   0  0  0  0  0  0  0  0  0  0  0  0
  -23.6869   22.2707    4.1948 C   0  0  0  0  0  0  0  0  0  0  0  0
  -21.2433   22.7699    3.7808 C   0  0  0  0  0  0  0  0  0  0  0  0
  -21.3973   24.2446    3.3987 C   0  0  0  0  0  0  0  0  0  0  0  0
  -21.2582   24.5616    1.8890 C   0  0  0  0  0  0  0  0  0  0  0  0
  -20.5274   25.8635    2.3006 C   0  0  0  0  0  0  0  0  0  0  0  0
  -20.1408   25.1371    3.6108 C   0  0  0  0  0  0  0  0  0  0  0  0
  -24.4502   22.9623    3.2519 C   0  0  0  0  0  0  0  0  0  0  0  0
  1  4  1  0
  2  4  1  0
  2  6  1  0
  2  7  1  0
  3  9  2  0
  5  8  1  0
  5  9  1  0
  6  8  2  0
  7 14  2  0
  8 14  1  0
  9 10  1  0
 10 11  1  0
 10 13  1  0
 11 12  1  0
 12 13  1  0
M  END
$$$$
