CypD-x0658-pandda-model
     RDKit          3D

 14 15  0  0  0  0  0  0  0  0999 V2000
  -26.6850   20.5390    7.2900 C   0  0  0  0  0  0  0  0  0  0  0  0
  -25.5020   20.9970    6.5200 N   0  0  0  0  0  0  0  0  0  0  0  0
  -25.8370   21.3620    5.1410 C   0  0  0  0  0  0  0  0  0  0  0  0
  -22.5140   22.3390    3.9830 N   0  0  0  0  0  0  0  0  0  0  0  0
  -24.6280   22.0930    4.6110 C   0  0  0  0  0  0  0  0  0  0  0  0
  -23.1360   23.5440    3.9210 N   0  0  0  0  0  0  0  0  0  0  0  0
  -23.3990   21.4920    4.3930 C   0  0  0  0  0  0  0  0  0  0  0  0
  -24.4330   23.3940    4.2950 C   0  0  0  0  0  0  0  0  0  0  0  0
  -22.4370   24.7390    3.5880 C   0  0  0  0  0  0  0  0  0  0  0  0
  -22.7450   25.9490    4.2060 C   0  0  0  0  0  0  0  0  0  0  0  0
  -22.0420   27.0990    3.8980 C   0  0  0  0  0  0  0  0  0  0  0  0
  -21.0200   27.0620    2.9660 C   0  0  0  0  0  0  0  0  0  0  0  0
  -20.6980   25.8680    2.3470 C   0  0  0  0  0  0  0  0  0  0  0  0
  -21.3990   24.7170    2.6570 C   0  0  0  0  0  0  0  0  0  0  0  0
  1  2  1  0
  2  3  1  0
  3  5  1  0
  4  6  1  0
  4  7  2  0
  5  7  1  0
  5  8  2  0
  6  8  1  0
  6  9  1  0
  9 10  2  0
  9 14  1  0
 10 11  1  0
 11 12  2  0
 12 13  1  0
 13 14  2  0
M  CHG  1   2   1
M  END
$$$$
