CypD-x0295-pandda-model
     RDKit          3D

 15 16  0  0  0  0  0  0  0  0999 V2000
  -20.0810   26.1840    2.6130 C   0  0  0  0  0  0  0  0  0  0  0  0
  -23.5420   21.4650    5.0670 N   0  0  0  0  0  0  0  0  0  0  0  0
  -19.7990   24.8300    2.8930 O   0  0  0  0  0  0  0  0  0  0  0  0
  -20.7540   24.0110    3.4130 C   0  0  0  0  0  0  0  0  0  0  0  0
  -25.2340   25.5330    5.5880 N   0  0  0  0  0  0  0  0  0  0  0  0
  -20.2980   22.7650    3.8510 C   0  0  0  0  0  0  0  0  0  0  0  0
  -21.1520   21.8520    4.4190 C   0  0  0  0  0  0  0  0  0  0  0  0
  -22.5010   22.1850    4.5390 C   0  0  0  0  0  0  0  0  0  0  0  0
  -24.6570   22.2580    5.0320 C   0  0  0  0  0  0  0  0  0  0  0  0
  -24.3430   23.4670    4.4970 C   0  0  0  0  0  0  0  0  0  0  0  0
  -25.2240   24.6990    4.3420 C   0  0  0  0  0  0  0  0  0  0  0  0
  -23.8490   25.9270    5.9950 C   0  0  0  0  0  0  0  0  0  0  0  0
  -25.8740   24.7980    6.7220 C   0  0  0  0  0  0  0  0  0  0  0  0
  -22.9740   23.4300    4.1350 C   0  0  0  0  0  0  0  0  0  0  0  0
  -22.0900   24.3450    3.5430 C   0  0  0  0  0  0  0  0  0  0  0  0
  1  3  1  0
  2  8  1  0
  2  9  1  0
  3  4  1  0
  4  6  2  0
  4 15  1  0
  5 11  1  0
  5 12  1  0
  5 13  1  0
  6  7  1  0
  7  8  2  0
  8 14  1  0
  9 10  2  0
 10 11  1  0
 10 14  1  0
 14 15  2  0
M  CHG  1   5   1
M  END
$$$$
