CypD-x0446-pandda-model
     RDKit          3D

 11 12  0  0  0  0  0  0  0  0999 V2000
  -24.0740   22.0490    4.4450 C   0  0  0  0  0  0  0  0  0  0  0  0
  -23.3650   20.9270    4.6830 N   0  0  0  0  0  0  0  0  0  0  0  0
  -25.2900   21.9440    4.4960 O   0  0  0  0  0  0  0  0  0  0  0  0
  -23.4270   23.2850    4.0350 C   0  0  0  0  0  0  0  0  0  0  0  0
  -23.0570   25.3580    3.4690 N   0  0  0  0  0  0  0  0  0  0  0  0
  -23.9720   24.5330    3.9870 C   0  0  0  0  0  0  0  0  0  0  0  0
  -22.1450   23.3520    3.5610 N   0  0  0  0  0  0  0  0  0  0  0  0
  -21.9820   24.5860    3.2160 C   0  0  0  0  0  0  0  0  0  0  0  0
  -20.7360   25.1470    2.5600 C   0  0  0  0  0  0  0  0  0  0  0  0
  -19.8080   26.0290    3.3340 C   0  0  0  0  0  0  0  0  0  0  0  0
  -19.3840   24.6440    2.9520 C   0  0  0  0  0  0  0  0  0  0  0  0
  1  2  1  0
  1  3  2  0
  1  4  1  0
  4  6  2  0
  4  7  1  0
  5  6  1  0
  5  8  1  0
  7  8  2  0
  8  9  1  0
  9 10  1  0
  9 11  1  0
 10 11  1  0
M  END
$$$$
