CypD-x0537-pandda-model
     RDKit          3D

 12 12  0  0  0  0  0  0  0  0999 V2000
  -20.8620   24.4509    0.4276 C   0  0  0  0  0  0  0  0  0  0  0  0
  -20.3989   25.0141    1.6945 N   0  0  0  0  0  0  0  0  0  0  0  0
  -19.4128   22.8777    2.4872 O   0  0  0  0  0  0  0  0  0  0  0  0
  -20.2189   23.9648    2.9968 S   0  0  0  0  0  0  0  0  0  0  0  0
  -21.8790   23.3877    3.4312 C   0  0  0  0  0  0  0  0  0  0  0  0
  -19.7249   24.7944    4.0663 O   0  0  0  0  0  0  0  0  0  0  0  0
  -23.0397   24.0884    3.1065 C   0  0  0  0  0  0  0  0  0  0  0  0
  -24.2907   23.6160    3.4724 C   0  0  0  0  0  0  0  0  0  0  0  0
  -24.4096   22.4288    4.1740 C   0  0  0  0  0  0  0  0  0  0  0  0
  -23.2724   21.7269    4.5222 C   0  0  0  0  0  0  0  0  0  0  0  0
  -22.0315   22.2187    4.1642 C   0  0  0  0  0  0  0  0  0  0  0  0
  -20.6329   21.3196    4.6908 Cl  0  0  0  0  0  0  0  0  0  0  0  0
  1  2  1  0
  2  4  1  0
  3  4  2  0
  4  5  1  0
  4  6  2  0
  5  7  2  0
  5 11  1  0
  7  8  1  0
  8  9  2  0
  9 10  1  0
 10 11  2  0
 11 12  1  0
M  END
$$$$
