CypD-x0697-pandda-model
     RDKit          3D

 10 10  0  0  0  0  0  0  0  0999 V2000
  -20.1940   24.4570    0.7580 C   0  0  0  0  0  0  0  0  0  0  0  0
  -23.3630   20.8130    5.0890 N   0  0  0  0  0  0  0  0  0  0  0  0
  -21.6610   24.2250    2.6410 O   0  0  0  0  0  0  0  0  0  0  0  0
  -20.7120   25.0910    2.0480 C   0  0  0  0  0  0  0  0  0  0  0  0
  -24.3350   21.3940    4.3390 N   0  0  0  0  0  0  0  0  0  0  0  0
  -20.1190   22.9540    3.5820 O   0  0  0  0  0  0  0  0  0  0  0  0
  -21.2970   23.1910    3.4020 C   0  0  0  0  0  0  0  0  0  0  0  0
  -22.3260   22.3590    3.9570 C   0  0  0  0  0  0  0  0  0  0  0  0
  -22.1670   21.3580    4.8580 C   0  0  0  0  0  0  0  0  0  0  0  0
  -23.7030   22.3410    3.7030 C   0  0  0  0  0  0  0  0  0  0  0  0
  1  4  1  0
  2  5  1  0
  2  9  1  0
  3  4  1  0
  3  7  1  0
  5 10  2  0
  6  7  2  0
  7  8  1  0
  8  9  2  0
  8 10  1  0
M  END
$$$$
