CypD-x0528-pandda-model
     RDKit          3D

 15 16  0  0  1  0  0  0  0  0999 V2000
  -26.7380   24.8950    5.6570 C   0  0  0  0  0  0  0  0  0  0  0  0
  -26.1300   25.2270    3.2570 N   0  0  0  0  0  0  0  0  0  0  0  0
  -26.5120   23.4100    1.9900 O   0  0  0  0  0  0  0  0  0  0  0  0
  -25.3570   21.7010    4.4200 S   0  0  0  0  0  0  0  0  0  0  0  0
  -26.0130   25.7750    4.6410 C   0  0  2  0  0  0  0  0  0  0  0  0
  -22.8540   22.1530    4.2170 N   0  0  0  0  0  0  0  0  0  0  0  0
  -24.5550   26.0220    5.0490 C   0  0  0  0  0  0  0  0  0  0  0  0
  -23.7430   27.1500    4.4880 C   0  0  0  0  0  0  0  0  0  0  0  0
  -24.2190   27.2020    5.9100 C   0  0  0  0  0  0  0  0  0  0  0  0
  -26.8140   26.1460    2.3020 C   0  0  0  0  0  0  0  0  0  0  0  0
  -25.8780   23.9160    2.9070 C   0  0  0  0  0  0  0  0  0  0  0  0
  -24.8620   23.1180    3.5290 C   0  0  0  0  0  0  0  0  0  0  0  0
  -23.6850   21.3330    4.7300 C   0  0  0  0  0  0  0  0  0  0  0  0
  -23.5100   23.1600    3.5470 C   0  0  0  0  0  0  0  0  0  0  0  0
  -22.6340   24.1970    2.8730 C   0  0  0  0  0  0  0  0  0  0  0  0
  5  1  1  1
  2  5  1  0
  2 10  1  0
  2 11  1  0
  3 11  2  0
  4 12  1  0
  4 13  1  0
  5  7  1  0
  6 13  2  0
  6 14  1  0
  7  8  1  0
  7  9  1  0
  8  9  1  0
 11 12  1  0
 12 14  2  0
 14 15  1  0
M  END
$$$$
