CypD-x0104-pandda-model
     RDKit          3D

 10 10  0  0  0  0  0  0  0  0999 V2000
  -30.2580   20.0980    6.2080 C   0  0  0  0  0  0  0  0  0  0  0  0
  -28.0410   20.4150    5.2340 N   0  0  0  0  0  0  0  0  0  0  0  0
  -28.3180   20.5170    7.4590 O   0  0  0  0  0  0  0  0  0  0  0  0
  -24.4980   22.1720    4.3600 S   0  0  0  0  0  0  0  0  0  0  0  0
  -28.7850   20.3630    6.3560 C   0  0  0  0  0  0  0  0  0  0  0  0
  -26.0830   23.3980    2.7680 N   0  0  0  0  0  0  0  0  0  0  0  0
  -26.5730   20.5050    5.1990 C   0  0  0  0  0  0  0  0  0  0  0  0
  -26.1600   21.6580    4.3090 C   0  0  0  0  0  0  0  0  0  0  0  0
  -26.8220   22.4340    3.4390 C   0  0  0  0  0  0  0  0  0  0  0  0
  -24.8740   23.4050    3.1780 C   0  0  0  0  0  0  0  0  0  0  0  0
  1  5  1  0
  2  5  1  0
  2  7  1  0
  3  5  2  0
  4  8  1  0
  4 10  1  0
  6  9  1  0
  6 10  2  0
  7  8  1  0
  8  9  2  0
M  END
$$$$
