CypD-x0697-pandda-model
     RDKit          3D

 10 10  0  0  0  0  0  0  0  0999 V2000
  -20.6341   26.3185    2.9396 C   0  0  0  0  0  0  0  0  0  0  0  0
  -25.3697   22.2288    3.5421 N   0  0  0  0  0  0  0  0  0  0  0  0
  -21.6913   24.2115    3.2565 O   0  0  0  0  0  0  0  0  0  0  0  0
  -20.4441   24.8064    2.9721 C   0  0  0  0  0  0  0  0  0  0  0  0
  -24.8709   21.1219    4.1560 N   0  0  0  0  0  0  0  0  0  0  0  0
  -20.7880   22.2557    3.7110 O   0  0  0  0  0  0  0  0  0  0  0  0
  -21.8008   22.9250    3.5934 C   0  0  0  0  0  0  0  0  0  0  0  0
  -23.1276   22.3904    3.7529 C   0  0  0  0  0  0  0  0  0  0  0  0
  -24.3280   22.9852    3.3500 C   0  0  0  0  0  0  0  0  0  0  0  0
  -23.5387   21.2023    4.2737 C   0  0  0  0  0  0  0  0  0  0  0  0
  1  4  1  0
  2  5  1  0
  2  9  2  0
  3  4  1  0
  3  7  1  0
  5 10  1  0
  6  7  2  0
  7  8  1  0
  8  9  1  0
  8 10  2  0
M  END
$$$$
