CypD-x0548-pandda-model
     RDKit          3D

 13 14  0  0  0  0  0  0  0  0999 V2000
  -27.0109   20.5904    5.6786 C   0  0  0  0  0  0  0  0  0  0  0  0
  -27.6827   19.6204    4.8074 N   0  0  0  0  0  0  0  0  0  0  0  0
  -26.3617   22.0367    3.7987 O   0  0  0  0  0  0  0  0  0  0  0  0
  -26.0095   21.3765    4.8664 C   0  0  0  0  0  0  0  0  0  0  0  0
  -25.3449   22.6184    3.2352 N   0  0  0  0  0  0  0  0  0  0  0  0
  -24.6930   21.5331    5.0307 C   0  0  0  0  0  0  0  0  0  0  0  0
  -24.2977   22.3363    3.9587 C   0  0  0  0  0  0  0  0  0  0  0  0
  -22.9279   22.7443    3.6948 C   0  0  0  0  0  0  0  0  0  0  0  0
  -22.6332   23.7902    2.8211 C   0  0  0  0  0  0  0  0  0  0  0  0
  -21.3271   24.1542    2.5445 C   0  0  0  0  0  0  0  0  0  0  0  0
  -20.2760   23.4837    3.1421 C   0  0  0  0  0  0  0  0  0  0  0  0
  -20.5400   22.4526    4.0253 C   0  0  0  0  0  0  0  0  0  0  0  0
  -21.8471   22.0928    4.2928 C   0  0  0  0  0  0  0  0  0  0  0  0
  1  2  1  0
  1  4  1  0
  3  4  1  0
  3  5  1  0
  4  6  2  0
  5  7  2  0
  6  7  1  0
  7  8  1  0
  8  9  2  0
  8 13  1  0
  9 10  1  0
 10 11  2  0
 11 12  1  0
 12 13  2  0
M  CHG  1   2   1
M  END
$$$$
