CypD-x0691-pandda-model
     RDKit          3D

 10 10  0  0  0  0  0  0  0  0999 V2000
  -24.0174   28.1439    6.2268 C   0  0  0  0  0  0  0  0  0  0  0  0
  -24.2033   25.6721    6.2570 N   0  0  0  0  0  0  0  0  0  0  0  0
  -24.4693   26.8470    8.1208 O   0  0  0  0  0  0  0  0  0  0  0  0
  -25.3315   22.9402    5.0484 S   0  0  0  0  0  0  0  0  0  0  0  0
  -24.2449   26.8327    6.9391 C   0  0  0  0  0  0  0  0  0  0  0  0
  -23.3574   21.8844    3.8127 N   0  0  0  0  0  0  0  0  0  0  0  0
  -24.1289   25.4747    4.8042 C   0  0  0  0  0  0  0  0  0  0  0  0
  -24.0540   23.9936    4.5030 C   0  0  0  0  0  0  0  0  0  0  0  0
  -23.1369   23.2534    3.8659 C   0  0  0  0  0  0  0  0  0  0  0  0
  -24.4460   21.5745    4.4033 C   0  0  0  0  0  0  0  0  0  0  0  0
  1  5  1  0
  2  5  1  0
  2  7  1  0
  3  5  2  0
  4  8  1  0
  4 10  1  0
  6  9  1  0
  6 10  2  0
  7  8  1  0
  8  9  2  0
M  END
$$$$
