CypD-x0976-pandda-model
     RDKit          3D

 11 12  0  0  0  0  0  0  0  0999 V2000
  -25.7910   20.8840    5.0450 C   0  0  0  0  0  0  0  0  0  0  0  0
  -26.9180   21.8080    4.9160 N   0  0  0  0  0  0  0  0  0  0  0  0
  -24.5560   21.6250    4.5610 C   0  0  0  0  0  0  0  0  0  0  0  0
  -23.3100   21.2010    4.8940 N   0  0  0  0  0  0  0  0  0  0  0  0
  -22.4530   22.0800    4.3250 C   0  0  0  0  0  0  0  0  0  0  0  0
  -24.5720   22.6900    3.8240 N   0  0  0  0  0  0  0  0  0  0  0  0
  -21.0600   22.1710    4.3150 C   0  0  0  0  0  0  0  0  0  0  0  0
  -20.4830   23.2120    3.6230 C   0  0  0  0  0  0  0  0  0  0  0  0
  -21.2780   24.1550    2.9580 C   0  0  0  0  0  0  0  0  0  0  0  0
  -22.6530   24.0560    2.9810 C   0  0  0  0  0  0  0  0  0  0  0  0
  -23.2490   23.0020    3.6720 C   0  0  0  0  0  0  0  0  0  0  0  0
  1  2  1  0
  1  3  1  0
  3  4  1  0
  3  6  2  0
  4  5  1  0
  5  7  1  0
  5 11  2  0
  6 11  1  0
  7  8  2  0
  8  9  1  0
  9 10  2  0
 10 11  1  0
M  CHG  1   2   1
M  END
$$$$
