CypD-x0627-pandda-model
     RDKit          3D

 14 15  0  0  0  0  0  0  0  0999 V2000
  -27.9176   19.1262    3.5804 C   0  0  0  0  0  0  0  0  0  0  0  0
  -24.6966   22.9607    3.9095 N   0  0  0  0  0  0  0  0  0  0  0  0
  -25.4725   19.4131    2.6681 O   0  0  0  0  0  0  0  0  0  0  0  0
  -26.5911   20.2157    3.1101 S   0  0  0  0  0  0  0  0  0  0  0  0
  -26.1539   21.0856    4.6197 C   0  0  0  0  0  0  0  0  0  0  0  0
  -23.6492   21.1989    4.7755 N   0  0  0  0  0  0  0  0  0  0  0  0
  -27.1101   21.1674    2.1508 O   0  0  0  0  0  0  0  0  0  0  0  0
  -24.8264   21.7932    4.4411 C   0  0  0  0  0  0  0  0  0  0  0  0
  -23.3477   23.1450    3.8411 C   0  0  0  0  0  0  0  0  0  0  0  0
  -22.6301   24.2116    3.3038 C   0  0  0  0  0  0  0  0  0  0  0  0
  -21.2531   24.1623    3.3074 C   0  0  0  0  0  0  0  0  0  0  0  0
  -20.5846   23.0597    3.8509 C   0  0  0  0  0  0  0  0  0  0  0  0
  -21.2836   22.0054    4.3956 C   0  0  0  0  0  0  0  0  0  0  0  0
  -22.6793   22.0587    4.3745 C   0  0  0  0  0  0  0  0  0  0  0  0
  1  4  1  0
  2  8  2  0
  2  9  1  0
  3  4  2  0
  4  5  1  0
  4  7  2  0
  5  8  1  0
  6  8  1  0
  6 14  1  0
  9 10  2  0
  9 14  1  0
 10 11  1  0
 11 12  2  0
 12 13  1  0
 13 14  2  0
M  END
$$$$
