CypD-x0976-pandda-model
     RDKit          3D

 11 12  0  0  0  0  0  0  0  0999 V2000
  -26.3302   21.2394    5.1567 C   0  0  0  0  0  0  0  0  0  0  0  0
  -26.6879   19.9093    4.6423 N   0  0  0  0  0  0  0  0  0  0  0  0
  -25.0055   21.7258    4.5774 C   0  0  0  0  0  0  0  0  0  0  0  0
  -23.7958   21.2723    5.0154 N   0  0  0  0  0  0  0  0  0  0  0  0
  -22.8632   22.0101    4.3648 C   0  0  0  0  0  0  0  0  0  0  0  0
  -24.9178   22.6443    3.6733 N   0  0  0  0  0  0  0  0  0  0  0  0
  -21.4683   22.0478    4.4254 C   0  0  0  0  0  0  0  0  0  0  0  0
  -20.8056   22.9806    3.6587 C   0  0  0  0  0  0  0  0  0  0  0  0
  -21.5178   23.8667    2.8406 C   0  0  0  0  0  0  0  0  0  0  0  0
  -22.8944   23.8149    2.7845 C   0  0  0  0  0  0  0  0  0  0  0  0
  -23.5754   22.8685    3.5500 C   0  0  0  0  0  0  0  0  0  0  0  0
  1  2  1  0
  1  3  1  0
  3  4  1  0
  3  6  2  0
  4  5  1  0
  5  7  1  0
  5 11  2  0
  6 11  1  0
  7  8  2  0
  8  9  1  0
  9 10  2  0
 10 11  1  0
M  CHG  1   2   1
M  END
$$$$
