CypD-x0475-pandda-model
     RDKit          3D

 14 14  0  0  0  0  0  0  0  0999 V2000
  -16.0490    3.0290   19.1710 C   0  0  0  0  0  0  0  0  0  0  0  0
  -11.5190    2.4340   21.7600 N   0  0  0  0  0  0  0  0  0  0  0  0
  -10.0620    2.2130   20.0860 O   0  0  0  0  0  0  0  0  0  0  0  0
  -14.5810    2.9560   18.7860 C   0  0  0  0  0  0  0  0  0  0  0  0
  -10.6780    3.0350   25.2880 O   0  0  0  0  0  0  0  0  0  0  0  0
  -14.2050    3.1540   17.4700 C   0  0  0  0  0  0  0  0  0  0  0  0
  -12.2690    3.7980   24.0290 O   0  0  0  0  0  0  0  0  0  0  0  0
  -12.8710    3.0760   17.1160 C   0  0  0  0  0  0  0  0  0  0  0  0
  -11.9160    2.8060   18.0770 C   0  0  0  0  0  0  0  0  0  0  0  0
  -12.2530    2.6180   19.4200 C   0  0  0  0  0  0  0  0  0  0  0  0
  -13.6120    2.6890   19.7410 C   0  0  0  0  0  0  0  0  0  0  0  0
  -11.2190    2.3920   20.4250 C   0  0  0  0  0  0  0  0  0  0  0  0
  -10.5730    2.5050   22.9320 C   0  0  0  0  0  0  0  0  0  0  0  0
  -11.2110    3.1600   24.1710 C   0  0  0  0  0  0  0  0  0  0  0  0
  1  4  1  0
  2 12  1  0
  2 13  1  0
  3 12  2  0
  4  6  2  0
  4 11  1  0
  5 14  1  0
  6  8  1  0
  7 14  2  0
  8  9  2  0
  9 10  1  0
 10 11  2  0
 10 12  1  0
 13 14  1  0
M  CHG  1   5  -1
M  END
$$$$
