CypD-x0446-pandda-model
     RDKit          3D

 11 12  0  0  0  0  0  0  0  0999 V2000
  -24.5211   22.3459    3.9117 C   0  0  0  0  0  0  0  0  0  0  0  0
  -24.0422   21.2118    4.4714 N   0  0  0  0  0  0  0  0  0  0  0  0
  -25.6458   22.3127    3.4363 O   0  0  0  0  0  0  0  0  0  0  0  0
  -23.7030   23.5417    3.8004 C   0  0  0  0  0  0  0  0  0  0  0  0
  -23.0365   25.6179    3.7827 N   0  0  0  0  0  0  0  0  0  0  0  0
  -24.0366   24.8141    4.1594 C   0  0  0  0  0  0  0  0  0  0  0  0
  -22.4635   23.5610    3.2208 N   0  0  0  0  0  0  0  0  0  0  0  0
  -22.1313   24.8099    3.1937 C   0  0  0  0  0  0  0  0  0  0  0  0
  -20.8874   25.3617    2.5248 C   0  0  0  0  0  0  0  0  0  0  0  0
  -19.9477   26.2668    3.2602 C   0  0  0  0  0  0  0  0  0  0  0  0
  -19.5381   24.8647    2.9326 C   0  0  0  0  0  0  0  0  0  0  0  0
  1  2  1  0
  1  3  2  0
  1  4  1  0
  4  6  2  0
  4  7  1  0
  5  6  1  0
  5  8  1  0
  7  8  2  0
  8  9  1  0
  9 10  1  0
  9 11  1  0
 10 11  1  0
M  END
$$$$
