CypD-x0964-pandda-model
     RDKit          3D

 12 13  0  0  0  0  0  0  0  0999 V2000
  -20.7686   26.7405    1.9977 C   0  0  0  0  0  0  0  0  0  0  0  0
  -20.0058   27.8007    1.5610 N   0  0  0  0  0  0  0  0  0  0  0  0
  -24.4407   23.5506    3.4374 O   0  0  0  0  0  0  0  0  0  0  0  0
  -22.1281   26.6743    1.7195 C   0  0  0  0  0  0  0  0  0  0  0  0
  -22.7441   22.4836    4.1583 N   0  0  0  0  0  0  0  0  0  0  0  0
  -22.8957   25.6307    2.1992 C   0  0  0  0  0  0  0  0  0  0  0  0
  -24.9407   22.5270    4.0270 N   0  0  0  0  0  0  0  0  0  0  0  0
  -22.3371   24.6052    2.9705 C   0  0  0  0  0  0  0  0  0  0  0  0
  -20.9613   24.6677    3.2016 C   0  0  0  0  0  0  0  0  0  0  0  0
  -20.1968   25.7139    2.7310 C   0  0  0  0  0  0  0  0  0  0  0  0
  -23.1366   23.5353    3.5236 C   0  0  0  0  0  0  0  0  0  0  0  0
  -23.9129   21.9038    4.4630 C   0  0  0  0  0  0  0  0  0  0  0  0
  1  2  1  0
  1  4  2  0
  1 10  1  0
  3  7  1  0
  3 11  1  0
  4  6  1  0
  5 11  2  0
  5 12  1  0
  6  8  2  0
  7 12  2  0
  8  9  1  0
  8 11  1  0
  9 10  2  0
M  END
$$$$
