CypD-x0627-pandda-model
     RDKit          3D

 14 15  0  0  0  0  0  0  0  0999 V2000
  -27.8082   20.6657    2.6376 C   0  0  0  0  0  0  0  0  0  0  0  0
  -23.6309   21.3502    4.7643 N   0  0  0  0  0  0  0  0  0  0  0  0
  -25.4996   19.4573    2.7069 O   0  0  0  0  0  0  0  0  0  0  0  0
  -26.5989   19.7735    3.5925 S   0  0  0  0  0  0  0  0  0  0  0  0
  -26.1069   20.9860    4.8258 C   0  0  0  0  0  0  0  0  0  0  0  0
  -24.8906   22.7715    3.6060 N   0  0  0  0  0  0  0  0  0  0  0  0
  -27.3060   18.6855    4.2311 O   0  0  0  0  0  0  0  0  0  0  0  0
  -24.8742   21.7444    4.3843 C   0  0  0  0  0  0  0  0  0  0  0  0
  -22.7720   22.2099    4.1651 C   0  0  0  0  0  0  0  0  0  0  0  0
  -21.3785   22.3101    4.1592 C   0  0  0  0  0  0  0  0  0  0  0  0
  -20.8038   23.3166    3.4142 C   0  0  0  0  0  0  0  0  0  0  0  0
  -21.6006   24.2136    2.6920 C   0  0  0  0  0  0  0  0  0  0  0  0
  -22.9747   24.1072    2.7118 C   0  0  0  0  0  0  0  0  0  0  0  0
  -23.5684   23.0892    3.4560 C   0  0  0  0  0  0  0  0  0  0  0  0
  1  4  1  0
  2  8  1  0
  2  9  1  0
  3  4  2  0
  4  5  1  0
  4  7  2  0
  5  8  1  0
  6  8  2  0
  6 14  1  0
  9 10  2  0
  9 14  1  0
 10 11  1  0
 11 12  2  0
 12 13  1  0
 13 14  2  0
M  END
$$$$
