CypD-x0042-pandda-model
     RDKit          3D

 11 11  0  0  0  0  0  0  0  0999 V2000
  -23.8800   21.6060    4.4030 C   0  0  0  0  0  0  0  0  0  0  0  0
  -23.9520   20.8140    5.4840 N   0  0  0  0  0  0  0  0  0  0  0  0
  -24.8960   21.7330    3.7450 O   0  0  0  0  0  0  0  0  0  0  0  0
  -22.6220   22.1900    4.0160 C   0  0  0  0  0  0  0  0  0  0  0  0
  -20.3890   22.3860    3.8380 N   0  0  0  0  0  0  0  0  0  0  0  0
  -21.1750   26.4150    3.3160 O   0  0  0  0  0  0  0  0  0  0  0  0
  -21.3560   21.7100    4.3680 C   0  0  0  0  0  0  0  0  0  0  0  0
  -20.9960   23.3700    3.1480 N   0  0  0  0  0  0  0  0  0  0  0  0
  -20.2160   24.3880    2.4280 C   0  0  0  0  0  0  0  0  0  0  0  0
  -20.0220   25.6370    3.2910 C   0  0  0  0  0  0  0  0  0  0  0  0
  -22.3300   23.2650    3.2330 C   0  0  0  0  0  0  0  0  0  0  0  0
  1  2  1  0
  1  3  2  0
  1  4  1  0
  4  7  1  0
  4 11  2  0
  5  7  2  0
  5  8  1  0
  6 10  1  0
  8  9  1  0
  8 11  1  0
  9 10  1  0
M  END
$$$$
