CypD-x0601-pandda-model
     RDKit          3D

 14 15  0  0  0  0  0  0  0  0999 V2000
  -22.1964   23.1598    3.8235 C   0  0  0  0  0  0  0  0  0  0  0  0
  -21.7999   24.4635    3.9097 N   0  0  0  0  0  0  0  0  0  0  0  0
  -21.3567   22.2853    3.7056 O   0  0  0  0  0  0  0  0  0  0  0  0
  -20.6862   25.0914    3.3117 C   0  0  0  0  0  0  0  0  0  0  0  0
  -18.8211   25.4452    2.1239 N   0  0  0  0  0  0  0  0  0  0  0  0
  -19.6678   24.5441    2.5275 C   0  0  0  0  0  0  0  0  0  0  0  0
  -19.2944   26.6039    2.6316 N   0  0  0  0  0  0  0  0  0  0  0  0
  -20.4101   26.4089    3.3651 C   0  0  0  0  0  0  0  0  0  0  0  0
  -26.3722   22.3003    3.3775 N   0  0  0  0  0  0  0  0  0  0  0  0
  -23.6177   22.8696    3.7696 C   0  0  0  0  0  0  0  0  0  0  0  0
  -24.1733   21.6361    4.0823 C   0  0  0  0  0  0  0  0  0  0  0  0
  -25.5222   21.4038    3.8736 C   0  0  0  0  0  0  0  0  0  0  0  0
  -25.8617   23.4984    3.1626 C   0  0  0  0  0  0  0  0  0  0  0  0
  -24.5312   23.8205    3.3277 C   0  0  0  0  0  0  0  0  0  0  0  0
  1  2  1  0
  1  3  2  0
  1 10  1  0
  2  4  1  0
  4  6  1  0
  4  8  2  0
  5  6  2  0
  5  7  1  0
  7  8  1  0
  9 12  2  0
  9 13  1  0
 10 11  2  0
 10 14  1  0
 11 12  1  0
 13 14  2  0
M  END
$$$$
