CypD-x0441-pandda-model
     RDKit          3D

 15 15  0  0  1  0  0  0  0  0999 V2000
  -27.9916   19.8199    6.0935 C   0  0  2  0  0  0  0  0  0  0  0  0
  -27.2948   19.5274    4.8380 N   0  0  0  0  0  0  0  0  0  0  0  0
  -26.3896   19.8889    9.6104 O   0  0  0  0  0  0  0  0  0  0  0  0
  -29.3035   20.5503    5.7904 C   0  0  0  0  0  0  0  0  0  0  0  0
  -27.8529   20.9731    8.2892 N   0  0  0  0  0  0  0  0  0  0  0  0
  -30.0216   20.9386    7.0956 C   0  0  0  0  0  0  0  0  0  0  0  0
  -29.1179   21.7320    8.0522 C   0  0  0  0  0  0  0  0  0  0  0  0
  -27.1031   20.6511    7.0348 C   0  0  0  0  0  0  0  0  0  0  0  0
  -27.3862   20.5702    9.5152 C   0  0  0  0  0  0  0  0  0  0  0  0
  -28.1046   20.9978   10.7896 C   0  0  0  0  0  0  0  0  0  0  0  0
  -27.4182   20.5293   12.0915 C   0  0  0  0  0  0  0  0  0  0  0  0
  -27.9791   21.1637   13.3613 C   0  0  0  0  0  0  0  0  0  0  0  0
  -29.2770   20.9451   13.5187 F   0  0  0  0  0  0  0  0  0  0  0  0
  -27.8253   22.4810   13.3670 F   0  0  0  0  0  0  0  0  0  0  0  0
  -27.3842   20.7065   14.4525 F   0  0  0  0  0  0  0  0  0  0  0  0
  1  2  1  6
  1  4  1  0
  1  8  1  0
  3  9  2  0
  4  6  1  0
  5  7  1  0
  5  8  1  0
  5  9  1  0
  6  7  1  0
  9 10  1  0
 10 11  1  0
 11 12  1  0
 12 13  1  0
 12 14  1  0
 12 15  1  0
M  CHG  1   2   1
M  END
$$$$
