CypD-x0420-pandda-model
     RDKit          3D

 11 11  0  0  0  0  0  0  0  0999 V2000
  -10.2687    0.3625   20.2536 C   0  0  0  0  0  0  0  0  0  0  0  0
  -12.0405    1.6009   19.0877 N   0  0  0  0  0  0  0  0  0  0  0  0
  -10.0682    2.5982   19.5834 O   0  0  0  0  0  0  0  0  0  0  0  0
  -10.7798    1.6220   19.6024 C   0  0  0  0  0  0  0  0  0  0  0  0
  -14.6435    2.3243   19.7769 O   0  0  0  0  0  0  0  0  0  0  0  0
  -12.7305    2.6109   18.3923 C   0  0  0  0  0  0  0  0  0  0  0  0
  -12.1334    3.2984   17.3424 C   0  0  0  0  0  0  0  0  0  0  0  0
  -12.8520    4.2287   16.6091 C   0  0  0  0  0  0  0  0  0  0  0  0
  -14.1783    4.4793   16.9131 C   0  0  0  0  0  0  0  0  0  0  0  0
  -14.7889    3.8087   17.9563 C   0  0  0  0  0  0  0  0  0  0  0  0
  -14.0606    2.9046   18.7069 C   0  0  0  0  0  0  0  0  0  0  0  0
  1  4  1  0
  2  4  1  0
  2  6  1  0
  3  4  2  0
  5 11  1  0
  6  7  2  0
  6 11  1  0
  7  8  1  0
  8  9  2  0
  9 10  1  0
 10 11  2  0
M  END
$$$$
