CypD-x0483-pandda-model
     RDKit          3D

 15 16  0  0  0  0  0  0  0  0999 V2000
   -8.4800   -1.7890   22.1450 C   0  0  0  0  0  0  0  0  0  0  0  0
  -11.1700    1.0270   19.3060 N   0  0  0  0  0  0  0  0  0  0  0  0
  -10.6370    3.1000   18.6150 O   0  0  0  0  0  0  0  0  0  0  0  0
   -9.3070    1.9710   21.0760 S   0  0  0  0  0  0  0  0  0  0  0  0
   -8.9330   -0.4520   21.6010 C   0  0  0  0  0  0  0  0  0  0  0  0
   -9.8970   -0.4710   20.6090 N   0  0  0  0  0  0  0  0  0  0  0  0
  -15.2780    3.9160   17.9390 O   0  0  0  0  0  0  0  0  0  0  0  0
   -8.4880    0.7480   21.9990 C   0  0  0  0  0  0  0  0  0  0  0  0
  -10.2020    0.7140   20.2330 C   0  0  0  0  0  0  0  0  0  0  0  0
  -11.4440    2.2090   18.6830 C   0  0  0  0  0  0  0  0  0  0  0  0
  -12.8320    2.4050   18.0580 C   0  0  0  0  0  0  0  0  0  0  0  0
  -12.9700    3.7480   17.3060 C   0  0  0  0  0  0  0  0  0  0  0  0
  -14.4080    3.9970   16.8470 C   0  0  0  0  0  0  0  0  0  0  0  0
  -15.3160    2.6550   18.5370 C   0  0  0  0  0  0  0  0  0  0  0  0
  -13.9390    2.3260   19.1270 C   0  0  0  0  0  0  0  0  0  0  0  0
  1  5  1  0
  2  9  1  0
  2 10  1  0
  3 10  2  0
  4  8  1  0
  4  9  1  0
  5  6  1  0
  5  8  2  0
  6  9  2  0
  7 13  1  0
  7 14  1  0
 10 11  1  0
 11 12  1  0
 11 15  1  0
 12 13  1  0
 14 15  1  0
M  END
$$$$
