CypD-x0290-pandda-model
     RDKit          3D

 13 13  0  0  0  0  0  0  0  0999 V2000
  -13.6977   -0.0692   20.3383 C   0  0  0  0  0  0  0  0  0  0  0  0
  -11.5365    0.9803   19.7156 N   0  0  0  0  0  0  0  0  0  0  0  0
  -10.0882    2.6301   19.2702 O   0  0  0  0  0  0  0  0  0  0  0  0
  -12.6576    0.1269   19.2364 C   0  0  0  0  0  0  0  0  0  0  0  0
  -15.5958    4.3022   18.6232 N   0  0  0  0  0  0  0  0  0  0  0  0
  -10.6229    0.3250   20.6997 C   0  0  0  0  0  0  0  0  0  0  0  0
  -11.2157    2.1928   19.1348 C   0  0  0  0  0  0  0  0  0  0  0  0
  -12.1680    2.9744   18.3678 C   0  0  0  0  0  0  0  0  0  0  0  0
  -11.8324    3.4592   17.1044 C   0  0  0  0  0  0  0  0  0  0  0  0
  -12.7121    4.2378   16.3758 C   0  0  0  0  0  0  0  0  0  0  0  0
  -13.9534    4.5357   16.8975 C   0  0  0  0  0  0  0  0  0  0  0  0
  -14.3303    4.0484   18.1385 C   0  0  0  0  0  0  0  0  0  0  0  0
  -13.4267    3.2944   18.8684 C   0  0  0  0  0  0  0  0  0  0  0  0
  1  4  1  0
  2  4  1  0
  2  6  1  0
  2  7  1  0
  3  7  2  0
  5 12  1  0
  7  8  1  0
  8  9  2  0
  8 13  1  0
  9 10  1  0
 10 11  2  0
 11 12  1  0
 12 13  2  0
M  END
$$$$
