CypD-x0896-pandda-model
     RDKit          3D

 10 11  0  0  1  0  0  0  0  0999 V2000
  -11.5690    2.6250   18.3590 C   0  0  0  0  0  0  0  0  0  0  0  0
  -11.5730    2.8560   17.0380 N   0  0  0  0  0  0  0  0  0  0  0  0
  -10.5560    2.6420   19.0300 O   0  0  0  0  0  0  0  0  0  0  0  0
  -12.9080    2.6060   16.4650 C   0  0  0  0  0  0  0  0  0  0  0  0
  -12.8170    2.3660   18.8110 N   0  0  0  0  0  0  0  0  0  0  0  0
  -13.7870    2.3430   17.7040 C   0  0  1  0  0  0  0  0  0  0  0  0
  -14.8570    3.4130   17.9590 C   0  0  0  0  0  0  0  0  0  0  0  0
  -15.5020    3.2200   19.3420 C   0  0  0  0  0  0  0  0  0  0  0  0
  -14.4320    3.2530   20.4490 C   0  0  0  0  0  0  0  0  0  0  0  0
  -13.2870    2.2550   20.2080 C   0  0  0  0  0  0  0  0  0  0  0  0
  1  2  1  0
  1  3  2  0
  1  5  1  0
  2  4  1  0
  6  4  1  6
  5  6  1  0
  5 10  1  0
  6  7  1  0
  7  8  1  0
  8  9  1  0
  9 10  1  0
M  END
$$$$
