CypD-x0644-pandda-model
     RDKit          3D

 13 14  0  0  1  0  0  0  0  0999 V2000
  -11.6445    1.6173   21.3793 C   0  0  0  0  0  0  0  0  0  0  0  0
  -10.8282    2.6595   22.0437 N   0  0  0  0  0  0  0  0  0  0  0  0
  -10.8700    2.6587   23.5382 C   0  0  1  0  0  0  0  0  0  0  0  0
   -8.7797    3.6899   24.2441 N   0  0  0  0  0  0  0  0  0  0  0  0
   -9.9431    1.5721   24.0812 C   0  0  0  0  0  0  0  0  0  0  0  0
   -8.5675    2.2181   24.2938 C   0  0  0  0  0  0  0  0  0  0  0  0
  -10.2513    3.9360   24.1524 C   0  0  0  0  0  0  0  0  0  0  0  0
  -12.0586    2.2274   20.0591 C   0  0  0  0  0  0  0  0  0  0  0  0
  -13.2816    2.8784   19.9549 C   0  0  0  0  0  0  0  0  0  0  0  0
  -13.6508    3.4834   18.7663 C   0  0  0  0  0  0  0  0  0  0  0  0
  -12.8060    3.4374   17.6743 C   0  0  0  0  0  0  0  0  0  0  0  0
  -11.5956    2.7751   17.7673 C   0  0  0  0  0  0  0  0  0  0  0  0
  -11.2206    2.1694   18.9537 C   0  0  0  0  0  0  0  0  0  0  0  0
  1  2  1  0
  1  8  1  0
  3  2  1  6
  3  5  1  0
  3  7  1  0
  4  6  1  0
  4  7  1  0
  5  6  1  0
  8  9  2  0
  8 13  1  0
  9 10  1  0
 10 11  2  0
 11 12  1  0
 12 13  2  0
M  CHG  2   2   1   4   1
M  END
$$$$
