CypD-x0992-pandda-model
     RDKit          3D

 12 13  0  0  0  0  0  0  0  0999 V2000
   -9.9350    0.4300   20.7941 C   0  0  0  0  0  0  0  0  0  0  0  0
  -10.2015    2.3668   19.4183 N   0  0  0  0  0  0  0  0  0  0  0  0
  -11.1376   -0.1136   20.4075 C   0  0  0  0  0  0  0  0  0  0  0  0
  -13.9363    3.5651   17.1046 N   0  0  0  0  0  0  0  0  0  0  0  0
  -11.8624    0.6317   19.5026 C   0  0  0  0  0  0  0  0  0  0  0  0
  -13.4971    2.6936   18.0398 N   0  0  0  0  0  0  0  0  0  0  0  0
  -11.3790    1.8570   19.0324 C   0  0  0  0  0  0  0  0  0  0  0  0
   -9.5077    1.6457   20.2916 C   0  0  0  0  0  0  0  0  0  0  0  0
  -12.1450    2.6410   18.1049 C   0  0  0  0  0  0  0  0  0  0  0  0
  -11.7149    3.4989   17.1456 C   0  0  0  0  0  0  0  0  0  0  0  0
  -12.8494    4.0335   16.5653 C   0  0  0  0  0  0  0  0  0  0  0  0
   -9.1914   -0.2138   21.6526 F   0  0  0  0  0  0  0  0  0  0  0  0
  1  3  2  0
  1  8  1  0
  1 12  1  0
  2  7  1  0
  2  8  2  0
  3  5  1  0
  4  6  1  0
  4 11  2  0
  5  7  2  0
  6  9  1  0
  7  9  1  0
  9 10  2  0
 10 11  1  0
M  END
$$$$
