CypD-x0601-pandda-model
     RDKit          3D

 14 15  0  0  0  0  0  0  0  0999 V2000
  -11.4171    2.5702   18.9252 C   0  0  0  0  0  0  0  0  0  0  0  0
  -11.2237    1.4806   19.7333 N   0  0  0  0  0  0  0  0  0  0  0  0
  -10.4562    3.2500   18.6258 O   0  0  0  0  0  0  0  0  0  0  0  0
  -10.0995    1.2727   20.5719 C   0  0  0  0  0  0  0  0  0  0  0  0
   -8.4323    0.2630   21.6774 N   0  0  0  0  0  0  0  0  0  0  0  0
   -9.4395    0.0821   20.8751 C   0  0  0  0  0  0  0  0  0  0  0  0
   -8.4259    1.5942   21.9196 N   0  0  0  0  0  0  0  0  0  0  0  0
   -9.4301    2.2127   21.2702 C   0  0  0  0  0  0  0  0  0  0  0  0
  -15.2724    3.8988   17.5853 N   0  0  0  0  0  0  0  0  0  0  0  0
  -12.7328    2.9647   18.4534 C   0  0  0  0  0  0  0  0  0  0  0  0
  -12.8842    3.9593   17.4959 C   0  0  0  0  0  0  0  0  0  0  0  0
  -14.1371    4.3844   17.1088 C   0  0  0  0  0  0  0  0  0  0  0  0
  -15.1375    2.9267   18.4733 C   0  0  0  0  0  0  0  0  0  0  0  0
  -13.9270    2.4417   18.9340 C   0  0  0  0  0  0  0  0  0  0  0  0
  1  2  1  0
  1  3  2  0
  1 10  1  0
  2  4  1  0
  4  6  1  0
  4  8  2  0
  5  6  2  0
  5  7  1  0
  7  8  1  0
  9 12  2  0
  9 13  1  0
 10 11  2  0
 10 14  1  0
 11 12  1  0
 13 14  2  0
M  END
$$$$
