CypD-x0138-pandda-model
     RDKit          3D

 17 18  0  0  0  0  0  0  0  0999 V2000
   -8.9050   -0.0680   25.1150 C   0  0  0  0  0  0  0  0  0  0  0  0
   -9.2470    0.6680   23.8580 N   0  0  0  0  0  0  0  0  0  0  0  0
   -9.9850    2.3110   19.3790 O   0  0  0  0  0  0  0  0  0  0  0  0
  -10.7340    0.8030   23.6430 C   0  0  0  0  0  0  0  0  0  0  0  0
  -10.3420    0.9870   21.1370 N   0  0  0  0  0  0  0  0  0  0  0  0
  -11.2310    0.4540   22.2190 C   0  0  0  0  0  0  0  0  0  0  0  0
  -12.1090    1.6610   19.6850 N   0  0  0  0  0  0  0  0  0  0  0  0
   -8.8670    0.9150   21.3930 C   0  0  0  0  0  0  0  0  0  0  0  0
   -8.5070    0.1360   22.6720 C   0  0  0  0  0  0  0  0  0  0  0  0
  -10.7880    1.6740   20.0320 C   0  0  0  0  0  0  0  0  0  0  0  0
  -12.8170    2.5750   18.8930 C   0  0  0  0  0  0  0  0  0  0  0  0
  -12.2900    3.1230   17.7220 C   0  0  0  0  0  0  0  0  0  0  0  0
  -12.9880    4.0870   17.0150 C   0  0  0  0  0  0  0  0  0  0  0  0
  -14.2230    4.4860   17.4880 C   0  0  0  0  0  0  0  0  0  0  0  0
  -14.7970    3.9310   18.6150 C   0  0  0  0  0  0  0  0  0  0  0  0
  -14.0860    2.9690   19.3110 C   0  0  0  0  0  0  0  0  0  0  0  0
  -14.8690    5.4270   16.8530 F   0  0  0  0  0  0  0  0  0  0  0  0
  1  2  1  0
  2  4  1  0
  2  9  1  0
  3 10  2  0
  4  6  1  0
  5  6  1  0
  5  8  1  0
  5 10  1  0
  7 10  1  0
  7 11  1  0
  8  9  1  0
 11 12  2  0
 11 16  1  0
 12 13  1  0
 13 14  2  0
 14 15  1  0
 14 17  1  0
 15 16  2  0
M  CHG  1   2   1
M  END
$$$$
