CypD-x0516-pandda-model
     RDKit          3D

 14 15  0  0  1  0  0  0  0  0999 V2000
  -10.7984    0.1615   24.0339 C   0  0  0  0  0  0  0  0  0  0  0  0
  -11.2618    0.9566   21.7569 N   0  0  0  0  0  0  0  0  0  0  0  0
   -9.9840    2.1719   23.1412 O   0  0  0  0  0  0  0  0  0  0  0  0
  -10.6483    1.1861   22.9407 C   0  0  0  0  0  0  0  0  0  0  0  0
  -10.5924    2.2069   18.2313 N   0  0  0  0  0  0  0  0  0  0  0  0
  -11.2598    1.8948   20.6015 C   0  0  1  0  0  0  0  0  0  0  0  0
  -10.5324    1.2815   19.3947 C   0  0  0  0  0  0  0  0  0  0  0  0
  -11.7945    2.8432   17.9496 C   0  0  0  0  0  0  0  0  0  0  0  0
  -11.9716    3.4085   16.6960 C   0  0  0  0  0  0  0  0  0  0  0  0
  -13.1310    4.0888   16.3812 C   0  0  0  0  0  0  0  0  0  0  0  0
  -14.1420    4.1983   17.3190 C   0  0  0  0  0  0  0  0  0  0  0  0
  -13.9867    3.6167   18.5656 C   0  0  0  0  0  0  0  0  0  0  0  0
  -12.8252    2.9323   18.8853 C   0  0  0  0  0  0  0  0  0  0  0  0
  -12.7075    2.2579   20.2477 C   0  0  0  0  0  0  0  0  0  0  0  0
  1  4  1  0
  2  4  1  0
  6  2  1  1
  3  4  2  0
  5  7  1  0
  5  8  1  0
  6  7  1  0
  6 14  1  0
  8  9  2  0
  8 13  1  0
  9 10  1  0
 10 11  2  0
 11 12  1  0
 12 13  2  0
 13 14  1  0
M  END
$$$$
