CypD-x0085-pandda-model
     RDKit          3D

 14 15  0  0  0  0  0  0  0  0999 V2000
  -13.3073    2.9899   18.7934 C   0  0  0  0  0  0  0  0  0  0  0  0
  -10.1454    2.1804   19.2157 N   0  0  0  0  0  0  0  0  0  0  0  0
  -14.2445    3.9615   18.4984 C   0  0  0  0  0  0  0  0  0  0  0  0
   -8.7263    0.8967   22.1367 N   0  0  0  0  0  0  0  0  0  0  0  0
  -14.0809    4.7281   17.3582 C   0  0  0  0  0  0  0  0  0  0  0  0
   -9.6906   -0.0428   21.9058 N   0  0  0  0  0  0  0  0  0  0  0  0
  -12.9847    4.5102   16.5394 C   0  0  0  0  0  0  0  0  0  0  0  0
  -12.0519    3.5341   16.8547 C   0  0  0  0  0  0  0  0  0  0  0  0
  -12.1996    2.7601   17.9945 C   0  0  0  0  0  0  0  0  0  0  0  0
  -11.1929    1.6752   18.3172 C   0  0  0  0  0  0  0  0  0  0  0  0
   -9.8736    1.5362   20.2987 C   0  0  0  0  0  0  0  0  0  0  0  0
   -8.8434    1.8089   21.2505 C   0  0  0  0  0  0  0  0  0  0  0  0
  -10.3644    0.3243   20.8853 C   0  0  0  0  0  0  0  0  0  0  0  0
  -13.4977    2.2560   19.8569 F   0  0  0  0  0  0  0  0  0  0  0  0
  1  3  2  0
  1  9  1  0
  1 14  1  0
  2 10  1  0
  2 11  2  0
  3  5  1  0
  4  6  1  0
  4 12  2  0
  5  7  2  0
  6 13  2  0
  7  8  1  0
  8  9  2  0
  9 10  1  0
 11 12  1  0
 11 13  1  0
M  END
$$$$
