CypD-x0886-pandda-model
     RDKit          3D

 13 14  0  0  0  0  0  0  0  0999 V2000
  -10.0117    0.5936   21.2369 C   0  0  0  0  0  0  0  0  0  0  0  0
  -12.0442    1.6849   20.4008 N   0  0  0  0  0  0  0  0  0  0  0  0
  -10.0005    2.1959   19.5386 O   0  0  0  0  0  0  0  0  0  0  0  0
  -10.6867    1.5722   20.3114 C   0  0  0  0  0  0  0  0  0  0  0  0
  -11.7580    2.7400   17.5134 N   0  0  0  0  0  0  0  0  0  0  0  0
  -12.9786    2.4826   19.7103 C   0  0  0  0  0  0  0  0  0  0  0  0
  -14.1620    2.8272   20.3361 C   0  0  0  0  0  0  0  0  0  0  0  0
  -15.1322    3.6101   19.6992 C   0  0  0  0  0  0  0  0  0  0  0  0
  -14.9287    4.0676   18.4202 C   0  0  0  0  0  0  0  0  0  0  0  0
  -13.7434    3.7308   17.7583 C   0  0  0  0  0  0  0  0  0  0  0  0
  -13.2415    4.0123   16.4715 C   0  0  0  0  0  0  0  0  0  0  0  0
  -12.0461    3.3919   16.3541 C   0  0  0  0  0  0  0  0  0  0  0  0
  -12.7907    2.9426   18.3945 C   0  0  0  0  0  0  0  0  0  0  0  0
  1  4  1  0
  2  4  1  0
  2  6  1  0
  3  4  2  0
  5 12  1  0
  5 13  1  0
  6  7  1  0
  6 13  2  0
  7  8  2  0
  8  9  1  0
  9 10  2  0
 10 11  1  0
 10 13  1  0
 11 12  2  0
M  END
$$$$
