CypD-x0556-pandda-model
     RDKit          3D

 19 21  0  0  0  0  0  0  0  0999 V2000
  -11.2282    2.2303   19.1876 C   0  0  0  0  0  0  0  0  0  0  0  0
  -11.3394    1.0655   19.9109 N   0  0  0  0  0  0  0  0  0  0  0  0
  -10.1560    2.7928   19.1327 O   0  0  0  0  0  0  0  0  0  0  0  0
  -10.3638    0.4658   20.7197 C   0  0  0  0  0  0  0  0  0  0  0  0
   -7.3865   -1.4941   22.9046 N   0  0  0  0  0  0  0  0  0  0  0  0
  -10.2879   -0.9355   20.7701 C   0  0  0  0  0  0  0  0  0  0  0  0
   -9.3123   -1.5563   21.5033 C   0  0  0  0  0  0  0  0  0  0  0  0
   -8.3612   -0.8265   22.2365 C   0  0  0  0  0  0  0  0  0  0  0  0
   -6.5487   -0.7816   23.5988 C   0  0  0  0  0  0  0  0  0  0  0  0
   -6.5758    0.6177   23.6750 C   0  0  0  0  0  0  0  0  0  0  0  0
   -7.5262    1.3100   22.9906 C   0  0  0  0  0  0  0  0  0  0  0  0
   -8.4599    0.5820   22.2328 C   0  0  0  0  0  0  0  0  0  0  0  0
   -9.4662    1.1950   21.4677 C   0  0  0  0  0  0  0  0  0  0  0  0
  -12.3592    2.8108   18.4963 C   0  0  0  0  0  0  0  0  0  0  0  0
  -13.6307    2.8456   19.0673 C   0  0  0  0  0  0  0  0  0  0  0  0
  -14.6854    3.4624   18.4208 C   0  0  0  0  0  0  0  0  0  0  0  0
  -14.4931    4.0591   17.1878 C   0  0  0  0  0  0  0  0  0  0  0  0
  -13.2440    4.0269   16.5955 C   0  0  0  0  0  0  0  0  0  0  0  0
  -12.1929    3.4054   17.2442 C   0  0  0  0  0  0  0  0  0  0  0  0
  1  2  1  0
  1  3  2  0
  1 14  1  0
  2  4  1  0
  4  6  1  0
  4 13  2  0
  5  8  2  0
  5  9  1  0
  6  7  2  0
  7  8  1  0
  8 12  1  0
  9 10  2  0
 10 11  1  0
 11 12  2  0
 12 13  1  0
 14 15  2  0
 14 19  1  0
 15 16  1  0
 16 17  2  0
 17 18  1  0
 18 19  2  0
M  END
$$$$
