CypD-x0085-pandda-model
     RDKit          3D

 14 15  0  0  0  0  0  0  0  0999 V2000
  -13.7040    2.9960   18.5180 C   0  0  0  0  0  0  0  0  0  0  0  0
  -10.6270    2.0820   19.0540 N   0  0  0  0  0  0  0  0  0  0  0  0
  -14.5970    4.0280   18.2940 C   0  0  0  0  0  0  0  0  0  0  0  0
  -10.9510   -0.1070   21.7870 N   0  0  0  0  0  0  0  0  0  0  0  0
  -14.3350    4.9240   17.2720 C   0  0  0  0  0  0  0  0  0  0  0  0
   -9.9530    0.7280   22.2020 N   0  0  0  0  0  0  0  0  0  0  0  0
  -13.2000    4.7660   16.4930 C   0  0  0  0  0  0  0  0  0  0  0  0
  -12.3220    3.7210   16.7290 C   0  0  0  0  0  0  0  0  0  0  0  0
  -12.5580    2.8240   17.7570 C   0  0  0  0  0  0  0  0  0  0  0  0
  -11.5790    1.6950   18.0040 C   0  0  0  0  0  0  0  0  0  0  0  0
  -10.6110    1.4200   20.1580 C   0  0  0  0  0  0  0  0  0  0  0  0
  -11.3420    0.2840   20.6380 C   0  0  0  0  0  0  0  0  0  0  0  0
   -9.7630    1.6060   21.2930 C   0  0  0  0  0  0  0  0  0  0  0  0
  -13.9670    2.1520   19.4830 F   0  0  0  0  0  0  0  0  0  0  0  0
  1  3  2  0
  1  9  1  0
  1 14  1  0
  2 10  1  0
  2 11  2  0
  3  5  1  0
  4  6  1  0
  4 12  2  0
  5  7  2  0
  6 13  2  0
  7  8  1  0
  8  9  2  0
  9 10  1  0
 11 12  1  0
 11 13  1  0
M  END
$$$$
