CypD-x0074-pandda-model
     RDKit          3D

 13 13  0  0  0  0  0  0  0  0999 V2000
  -18.2761    5.8805   17.1901 C   0  0  0  0  0  0  0  0  0  0  0  0
  -16.0168    5.1437   17.3395 O   0  0  0  0  0  0  0  0  0  0  0  0
  -17.3410    4.7827   17.6668 C   0  0  0  0  0  0  0  0  0  0  0  0
   -9.9961    2.5299   20.0000 O   0  0  0  0  0  0  0  0  0  0  0  0
  -14.9956    4.2968   17.6252 C   0  0  0  0  0  0  0  0  0  0  0  0
  -11.7102    1.5636   20.8296 O   0  0  0  0  0  0  0  0  0  0  0  0
  -13.7501    4.5946   17.0952 C   0  0  0  0  0  0  0  0  0  0  0  0
  -12.6672    3.7704   17.3512 C   0  0  0  0  0  0  0  0  0  0  0  0
  -12.8184    2.6421   18.1400 C   0  0  0  0  0  0  0  0  0  0  0  0
  -11.6343    1.7337   18.4534 C   0  0  0  0  0  0  0  0  0  0  0  0
  -11.0792    1.9534   19.8416 C   0  0  0  0  0  0  0  0  0  0  0  0
  -14.0628    2.3413   18.6630 C   0  0  0  0  0  0  0  0  0  0  0  0
  -15.1482    3.1573   18.4112 C   0  0  0  0  0  0  0  0  0  0  0  0
  1  3  1  0
  2  3  1  0
  2  5  1  0
  4 11  1  0
  5  7  2  0
  5 13  1  0
  6 11  2  0
  7  8  1  0
  8  9  2  0
  9 10  1  0
  9 12  1  0
 10 11  1  0
 12 13  2  0
M  CHG  1   4  -1
M  END
$$$$
