CypD-x0992-pandda-model
     RDKit          3D

 12 13  0  0  0  0  0  0  0  0999 V2000
  -10.8641    0.6936   20.7122 C   0  0  0  0  0  0  0  0  0  0  0  0
  -10.8556    2.6626   19.3591 N   0  0  0  0  0  0  0  0  0  0  0  0
  -12.2253    0.5272   20.6127 C   0  0  0  0  0  0  0  0  0  0  0  0
  -14.4737    4.9582   17.8250 N   0  0  0  0  0  0  0  0  0  0  0  0
  -12.8866    1.4732   19.8601 C   0  0  0  0  0  0  0  0  0  0  0  0
  -14.1073    4.0208   18.7315 N   0  0  0  0  0  0  0  0  0  0  0  0
  -12.1844    2.5196   19.2523 C   0  0  0  0  0  0  0  0  0  0  0  0
  -10.2278    1.7499   20.0877 C   0  0  0  0  0  0  0  0  0  0  0  0
  -12.8820    3.4993   18.4666 C   0  0  0  0  0  0  0  0  0  0  0  0
  -12.4668    4.1221   17.3346 C   0  0  0  0  0  0  0  0  0  0  0  0
  -13.4725    5.0082   16.9955 C   0  0  0  0  0  0  0  0  0  0  0  0
  -10.1647   -0.1618   21.4070 F   0  0  0  0  0  0  0  0  0  0  0  0
  1  3  2  0
  1  8  1  0
  1 12  1  0
  2  7  1  0
  2  8  2  0
  3  5  1  0
  4  6  1  0
  4 11  2  0
  5  7  2  0
  6  9  1  0
  7  9  1  0
  9 10  2  0
 10 11  1  0
M  END
$$$$
