CypD-x0392-pandda-model
     RDKit          3D

 17 18  0  0  0  0  0  0  0  0999 V2000
   -9.5310   -0.7250   25.7380 C   0  0  0  0  0  0  0  0  0  0  0  0
   -9.5000   -0.6450   24.2420 N   0  0  0  0  0  0  0  0  0  0  0  0
   -9.3800    1.7870   19.8620 O   0  0  0  0  0  0  0  0  0  0  0  0
   -8.7560    0.5900   23.8190 C   0  0  0  0  0  0  0  0  0  0  0  0
  -10.0330    0.6420   21.6480 N   0  0  0  0  0  0  0  0  0  0  0  0
   -8.6780    0.7300   22.2880 C   0  0  0  0  0  0  0  0  0  0  0  0
  -10.8720   -0.5130   22.1050 C   0  0  0  0  0  0  0  0  0  0  0  0
  -10.8830   -0.6560   23.6470 C   0  0  0  0  0  0  0  0  0  0  0  0
  -10.3170    1.4220   20.5440 C   0  0  0  0  0  0  0  0  0  0  0  0
  -11.6570    1.8600   20.1840 C   0  0  0  0  0  0  0  0  0  0  0  0
  -12.6350    2.1190   21.1560 C   0  0  0  0  0  0  0  0  0  0  0  0
  -13.8960    2.5950   20.8280 C   0  0  0  0  0  0  0  0  0  0  0  0
  -14.1900    2.8350   19.4990 C   0  0  0  0  0  0  0  0  0  0  0  0
  -13.2450    2.5860   18.5190 C   0  0  0  0  0  0  0  0  0  0  0  0
  -11.9930    2.1000   18.8450 C   0  0  0  0  0  0  0  0  0  0  0  0
  -15.3670    3.3140   19.1900 F   0  0  0  0  0  0  0  0  0  0  0  0
  -13.5280    2.8190   17.2620 F   0  0  0  0  0  0  0  0  0  0  0  0
  1  2  1  0
  2  4  1  0
  2  8  1  0
  3  9  2  0
  4  6  1  0
  5  6  1  0
  5  7  1  0
  5  9  1  0
  7  8  1  0
  9 10  1  0
 10 11  2  0
 10 15  1  0
 11 12  1  0
 12 13  2  0
 13 14  1  0
 13 16  1  0
 14 15  2  0
 14 17  1  0
M  CHG  1   2   1
M  END
$$$$
