CypD-x0101-pandda-model
     RDKit          3D

 18 19  0  0  0  0  0  0  0  0999 V2000
  -12.7173   -0.0592   19.2672 C   0  0  0  0  0  0  0  0  0  0  0  0
  -11.4976    0.7326   19.5922 N   0  0  0  0  0  0  0  0  0  0  0  0
  -10.1025    2.4096   19.0628 O   0  0  0  0  0  0  0  0  0  0  0  0
  -10.4865    0.0274   20.4427 C   0  0  0  0  0  0  0  0  0  0  0  0
   -9.5562    1.6845   22.8929 N   0  0  0  0  0  0  0  0  0  0  0  0
  -10.9173   -0.0419   21.9094 C   0  0  0  0  0  0  0  0  0  0  0  0
  -10.7894    1.3021   22.6001 C   0  0  0  0  0  0  0  0  0  0  0  0
  -11.9258    2.0386   22.9004 C   0  0  0  0  0  0  0  0  0  0  0  0
  -11.8018    3.2468   23.5509 C   0  0  0  0  0  0  0  0  0  0  0  0
  -10.5220    3.6545   23.8608 C   0  0  0  0  0  0  0  0  0  0  0  0
   -9.4493    2.8535   23.5037 C   0  0  0  0  0  0  0  0  0  0  0  0
  -11.2355    1.9675   19.0284 C   0  0  0  0  0  0  0  0  0  0  0  0
  -12.2682    2.7633   18.3899 C   0  0  0  0  0  0  0  0  0  0  0  0
  -12.0666    3.3252   17.1300 C   0  0  0  0  0  0  0  0  0  0  0  0
  -13.0385    4.0976   16.5212 C   0  0  0  0  0  0  0  0  0  0  0  0
  -14.2428    4.3241   17.1609 C   0  0  0  0  0  0  0  0  0  0  0  0
  -14.4658    3.7772   18.4101 C   0  0  0  0  0  0  0  0  0  0  0  0
  -13.4872    3.0135   19.0185 C   0  0  0  0  0  0  0  0  0  0  0  0
  1  2  1  0
  2  4  1  0
  2 12  1  0
  3 12  2  0
  4  6  1  0
  5  7  2  0
  5 11  1  0
  6  7  1  0
  7  8  1  0
  8  9  2  0
  9 10  1  0
 10 11  2  0
 12 13  1  0
 13 14  2  0
 13 18  1  0
 14 15  1  0
 15 16  2  0
 16 17  1  0
 17 18  2  0
M  END
$$$$
