CypD-x0461-pandda-model
     RDKit          3D

 11 11  0  0  0  0  0  0  0  0999 V2000
  -13.0150    0.0650   18.8400 C   0  0  0  0  0  0  0  0  0  0  0  0
  -11.8710    0.9090   19.2900 N   0  0  0  0  0  0  0  0  0  0  0  0
  -10.3830    2.5880   19.0420 O   0  0  0  0  0  0  0  0  0  0  0  0
  -11.3060    0.4750   20.6030 C   0  0  0  0  0  0  0  0  0  0  0  0
  -12.9690    3.3860   17.4340 N   0  0  0  0  0  0  0  0  0  0  0  0
  -11.3280    1.9740   18.6020 C   0  0  0  0  0  0  0  0  0  0  0  0
  -13.1040    4.4260   16.5910 N   0  0  0  0  0  0  0  0  0  0  0  0
  -11.8660    2.4300   17.2630 C   0  0  0  0  0  0  0  0  0  0  0  0
  -13.9600    3.3850   18.3530 C   0  0  0  0  0  0  0  0  0  0  0  0
  -14.7450    4.4510   18.0970 C   0  0  0  0  0  0  0  0  0  0  0  0
  -14.1570    5.0610   16.9980 C   0  0  0  0  0  0  0  0  0  0  0  0
  1  2  1  0
  2  4  1  0
  2  6  1  0
  3  6  2  0
  5  7  1  0
  5  8  1  0
  5  9  1  0
  6  8  1  0
  7 11  2  0
  9 10  2  0
 10 11  1  0
M  END
$$$$
