CypD-x0681-pandda-model
     RDKit          3D

 15 16  0  0  0  0  0  0  0  0999 V2000
   -8.0780   -1.6390   23.0410 C   0  0  0  0  0  0  0  0  0  0  0  0
   -8.6100   -0.5490   22.2130 N   0  0  0  0  0  0  0  0  0  0  0  0
  -10.4110    2.7220   19.1070 O   0  0  0  0  0  0  0  0  0  0  0  0
   -8.3250    0.7580   22.3430 C   0  0  0  0  0  0  0  0  0  0  0  0
  -10.6090    0.5520   19.6440 N   0  0  0  0  0  0  0  0  0  0  0  0
   -9.0260    1.4110   21.3950 C   0  0  0  0  0  0  0  0  0  0  0  0
  -12.6120    2.7370   17.4610 N   0  0  0  0  0  0  0  0  0  0  0  0
   -9.7220    0.4150   20.7150 C   0  0  0  0  0  0  0  0  0  0  0  0
  -12.3870    3.4420   16.3360 N   0  0  0  0  0  0  0  0  0  0  0  0
  -10.9160    1.6460   18.8960 C   0  0  0  0  0  0  0  0  0  0  0  0
   -9.4780   -0.7660   21.1970 N   0  0  0  0  0  0  0  0  0  0  0  0
  -11.8870    1.4870   17.7440 C   0  0  0  0  0  0  0  0  0  0  0  0
  -13.6010    3.2940   18.1920 C   0  0  0  0  0  0  0  0  0  0  0  0
  -14.0190    4.3890   17.5220 C   0  0  0  0  0  0  0  0  0  0  0  0
  -13.2290    4.4260   16.3820 C   0  0  0  0  0  0  0  0  0  0  0  0
  1  2  1  0
  2  4  1  0
  2 11  1  0
  3 10  2  0
  4  6  2  0
  5  8  1  0
  5 10  1  0
  6  8  1  0
  7  9  1  0
  7 12  1  0
  7 13  1  0
  8 11  2  0
  9 15  2  0
 10 12  1  0
 13 14  2  0
 14 15  1  0
M  END
$$$$
