CypD-x0333-pandda-model
     RDKit          3D

 14 14  0  0  0  0  0  0  0  0999 V2000
  -14.1903    2.5648   22.7087 C   0  0  0  0  0  0  0  0  0  0  0  0
  -13.6831    2.9715   20.3640 N   0  0  0  0  0  0  0  0  0  0  0  0
  -15.3358    4.1495   21.4206 O   0  0  0  0  0  0  0  0  0  0  0  0
  -14.4665    3.3048   21.4264 C   0  0  0  0  0  0  0  0  0  0  0  0
   -9.6495    2.3923   20.0155 O   0  0  0  0  0  0  0  0  0  0  0  0
  -13.4766    3.4791   19.0688 C   0  0  0  0  0  0  0  0  0  0  0  0
  -11.3912    1.6818   21.0619 O   0  0  0  0  0  0  0  0  0  0  0  0
  -14.2530    4.5152   18.5585 C   0  0  0  0  0  0  0  0  0  0  0  0
  -14.0049    5.0536   17.3097 C   0  0  0  0  0  0  0  0  0  0  0  0
  -12.9834    4.5443   16.5343 C   0  0  0  0  0  0  0  0  0  0  0  0
  -12.2127    3.5034   17.0167 C   0  0  0  0  0  0  0  0  0  0  0  0
  -12.4468    2.9621   18.2725 C   0  0  0  0  0  0  0  0  0  0  0  0
  -11.5583    1.7845   18.7072 C   0  0  0  0  0  0  0  0  0  0  0  0
  -10.8102    1.9629   20.0107 C   0  0  0  0  0  0  0  0  0  0  0  0
  1  4  1  0
  2  4  1  0
  2  6  1  0
  3  4  2  0
  5 14  1  0
  6  8  2  0
  6 12  1  0
  7 14  2  0
  8  9  1  0
  9 10  2  0
 10 11  1  0
 11 12  2  0
 12 13  1  0
 13 14  1  0
M  CHG  1   5  -1
M  END
$$$$
