CypD-x0051-pandda-model
     RDKit          3D

 13 14  0  0  0  0  0  0  0  0999 V2000
  -12.8260   -0.6048   22.2237 C   0  0  0  0  0  0  0  0  0  0  0  0
  -12.9432    1.0874   20.4251 N   0  0  0  0  0  0  0  0  0  0  0  0
   -9.7905    2.3283   19.7948 O   0  0  0  0  0  0  0  0  0  0  0  0
  -12.2731    0.4210   21.2599 C   0  0  0  0  0  0  0  0  0  0  0  0
  -12.0770    1.9054   19.7297 N   0  0  0  0  0  0  0  0  0  0  0  0
  -10.7863    1.7485   20.1716 C   0  0  0  0  0  0  0  0  0  0  0  0
  -10.7888    0.7103   21.2562 C   0  0  0  0  0  0  0  0  0  0  0  0
  -12.5053    2.7594   18.6964 C   0  0  0  0  0  0  0  0  0  0  0  0
  -13.5965    3.6012   18.8763 C   0  0  0  0  0  0  0  0  0  0  0  0
  -13.9999    4.4609   17.8703 C   0  0  0  0  0  0  0  0  0  0  0  0
  -13.3164    4.4815   16.6684 C   0  0  0  0  0  0  0  0  0  0  0  0
  -12.2377    3.6386   16.4718 C   0  0  0  0  0  0  0  0  0  0  0  0
  -11.8364    2.7844   17.4788 C   0  0  0  0  0  0  0  0  0  0  0  0
  1  4  1  0
  2  4  2  0
  2  5  1  0
  3  6  2  0
  4  7  1  0
  5  6  1  0
  5  8  1  0
  6  7  1  0
  8  9  2  0
  8 13  1  0
  9 10  1  0
 10 11  2  0
 11 12  1  0
 12 13  2  0
M  END
$$$$
