CypD-x0190-pandda-model
     RDKit          3D

 16 17  0  0  0  0  0  0  0  0999 V2000
   -8.5375   -0.2885   20.8373 C   0  0  0  0  0  0  0  0  0  0  0  0
   -8.6386    0.0505   22.2940 N   0  0  0  0  0  0  0  0  0  0  0  0
   -9.8873    2.5118   19.9774 O   0  0  0  0  0  0  0  0  0  0  0  0
   -8.3657    1.5307   22.5000 C   0  0  0  0  0  0  0  0  0  0  0  0
  -10.7823    1.8521   21.9044 N   0  0  0  0  0  0  0  0  0  0  0  0
   -9.6360    2.3862   22.7035 C   0  0  0  0  0  0  0  0  0  0  0  0
  -12.1384    2.3401   20.0573 N   0  0  0  0  0  0  0  0  0  0  0  0
  -11.1691    0.4516   22.2653 C   0  0  0  0  0  0  0  0  0  0  0  0
   -9.9825   -0.3612   22.8501 C   0  0  0  0  0  0  0  0  0  0  0  0
  -10.8969    2.2525   20.6067 C   0  0  0  0  0  0  0  0  0  0  0  0
  -12.5114    2.8319   18.7997 C   0  0  0  0  0  0  0  0  0  0  0  0
  -11.7183    2.6543   17.6726 C   0  0  0  0  0  0  0  0  0  0  0  0
  -12.0868    3.1875   16.4542 C   0  0  0  0  0  0  0  0  0  0  0  0
  -13.2681    3.8949   16.3342 C   0  0  0  0  0  0  0  0  0  0  0  0
  -14.0842    4.0573   17.4387 C   0  0  0  0  0  0  0  0  0  0  0  0
  -13.7076    3.5269   18.6610 C   0  0  0  0  0  0  0  0  0  0  0  0
  1  2  1  0
  2  4  1  0
  2  9  1  0
  3 10  2  0
  4  6  1  0
  5  6  1  0
  5  8  1  0
  5 10  1  0
  7 10  1  0
  7 11  1  0
  8  9  1  0
 11 12  2  0
 11 16  1  0
 12 13  1  0
 13 14  2  0
 14 15  1  0
 15 16  2  0
M  CHG  1   2   1
M  END
$$$$
