CypD-x0420-pandda-model
     RDKit          3D

 11 11  0  0  0  0  0  0  0  0999 V2000
  -10.4790    0.3310   20.3190 C   0  0  0  0  0  0  0  0  0  0  0  0
  -12.1610    1.4460   18.9200 N   0  0  0  0  0  0  0  0  0  0  0  0
  -10.2090    2.4870   19.4620 O   0  0  0  0  0  0  0  0  0  0  0  0
  -10.9390    1.5240   19.5190 C   0  0  0  0  0  0  0  0  0  0  0  0
  -14.9920    1.6270   19.0830 O   0  0  0  0  0  0  0  0  0  0  0  0
  -12.8920    2.4210   18.2120 C   0  0  0  0  0  0  0  0  0  0  0  0
  -12.2530    3.3290   17.3730 C   0  0  0  0  0  0  0  0  0  0  0  0
  -12.9710    4.3070   16.7030 C   0  0  0  0  0  0  0  0  0  0  0  0
  -14.3400    4.3940   16.8590 C   0  0  0  0  0  0  0  0  0  0  0  0
  -14.9980    3.4830   17.6610 C   0  0  0  0  0  0  0  0  0  0  0  0
  -14.2870    2.5020   18.3280 C   0  0  0  0  0  0  0  0  0  0  0  0
  1  4  1  0
  2  4  1  0
  2  6  1  0
  3  4  2  0
  5 11  1  0
  6  7  2  0
  6 11  1  0
  7  8  1  0
  8  9  2  0
  9 10  1  0
 10 11  2  0
M  END
$$$$
