CypD-x0519-pandda-model
     RDKit          3D

 15 15  0  0  0  0  0  0  0  0999 V2000
  -10.7418   -0.1494   22.6849 C   0  0  0  0  0  0  0  0  0  0  0  0
  -11.1417    1.2535   20.7693 N   0  0  0  0  0  0  0  0  0  0  0  0
   -8.6272   -0.0520   20.4968 O   0  0  0  0  0  0  0  0  0  0  0  0
  -10.2317    1.0799   21.9293 C   0  0  0  0  0  0  0  0  0  0  0  0
   -9.9371    2.5880   19.4583 O   0  0  0  0  0  0  0  0  0  0  0  0
  -10.3682    2.3119   22.8230 C   0  0  0  0  0  0  0  0  0  0  0  0
   -8.7480    0.8793   21.5241 C   0  0  0  0  0  0  0  0  0  0  0  0
  -11.0264    2.1203   19.7173 C   0  0  0  0  0  0  0  0  0  0  0  0
  -12.1792    2.5064   18.9230 C   0  0  0  0  0  0  0  0  0  0  0  0
  -12.0317    2.9716   17.6119 C   0  0  0  0  0  0  0  0  0  0  0  0
  -13.1158    3.3852   16.8558 C   0  0  0  0  0  0  0  0  0  0  0  0
  -14.3885    3.3350   17.3972 C   0  0  0  0  0  0  0  0  0  0  0  0
  -14.5484    2.8724   18.6887 C   0  0  0  0  0  0  0  0  0  0  0  0
  -13.4714    2.4645   19.4470 C   0  0  0  0  0  0  0  0  0  0  0  0
  -16.1433    2.8142   19.3928 Cl  0  0  0  0  0  0  0  0  0  0  0  0
  1  4  1  0
  2  4  1  0
  2  8  1  0
  3  7  1  0
  4  6  1  0
  4  7  1  0
  5  8  2  0
  8  9  1  0
  9 10  2  0
  9 14  1  0
 10 11  1  0
 11 12  2  0
 12 13  1  0
 13 14  2  0
 13 15  1  0
M  END
$$$$
