CypD-x0634-pandda-model
     RDKit          3D

 13 14  0  0  0  0  0  0  0  0999 V2000
  -12.2708    2.9511   17.6861 C   0  0  0  0  0  0  0  0  0  0  0  0
  -11.1342    2.2174   17.3503 N   0  0  0  0  0  0  0  0  0  0  0  0
  -12.3233   -0.3392   21.7425 O   0  0  0  0  0  0  0  0  0  0  0  0
  -12.7663    3.8618   16.7678 C   0  0  0  0  0  0  0  0  0  0  0  0
  -12.4255    1.8383   19.8781 N   0  0  0  0  0  0  0  0  0  0  0  0
  -13.9169    4.5795   17.0322 C   0  0  0  0  0  0  0  0  0  0  0  0
  -14.5858    4.3849   18.2234 C   0  0  0  0  0  0  0  0  0  0  0  0
  -14.0897    3.4923   19.1594 C   0  0  0  0  0  0  0  0  0  0  0  0
  -12.9249    2.7660   18.9247 C   0  0  0  0  0  0  0  0  0  0  0  0
  -12.6596    0.4143   19.4637 C   0  0  0  0  0  0  0  0  0  0  0  0
  -11.9424   -0.5615   20.4118 C   0  0  0  0  0  0  0  0  0  0  0  0
  -12.0714    0.9592   22.1993 C   0  0  0  0  0  0  0  0  0  0  0  0
  -12.7981    1.9988   21.3236 C   0  0  0  0  0  0  0  0  0  0  0  0
  1  2  1  0
  1  4  2  0
  1  9  1  0
  3 11  1  0
  3 12  1  0
  4  6  1  0
  5  9  1  0
  5 10  1  0
  5 13  1  0
  6  7  2  0
  7  8  1  0
  8  9  2  0
 10 11  1  0
 12 13  1  0
M  END
$$$$
