CypD-x0309-pandda-model
     RDKit          3D

 15 16  0  0  0  0  0  0  0  0999 V2000
  -13.8761    2.8451   20.9862 C   0  0  0  0  0  0  0  0  0  0  0  0
  -14.2582    4.8268   17.9553 N   0  0  0  0  0  0  0  0  0  0  0  0
  -16.1471    3.2236   19.8200 O   0  0  0  0  0  0  0  0  0  0  0  0
  -14.8701    2.6101   19.5252 S   0  0  0  0  0  0  0  0  0  0  0  0
  -14.0026    3.5765   18.2432 C   0  0  0  0  0  0  0  0  0  0  0  0
  -12.9992    3.0685   17.4681 N   0  0  0  0  0  0  0  0  0  0  0  0
  -14.8451    1.2000   19.1936 O   0  0  0  0  0  0  0  0  0  0  0  0
  -10.8018    0.2163   20.7980 S   0  0  0  0  0  0  0  0  0  0  0  0
  -13.4290    5.1240   16.9442 C   0  0  0  0  0  0  0  0  0  0  0  0
  -10.6364    2.2200   19.2159 N   0  0  0  0  0  0  0  0  0  0  0  0
  -12.6669    4.0627   16.6280 C   0  0  0  0  0  0  0  0  0  0  0  0
  -12.3484    1.7334   17.4242 C   0  0  0  0  0  0  0  0  0  0  0  0
  -11.6310    1.3770   18.7206 C   0  0  0  0  0  0  0  0  0  0  0  0
  -11.8696    0.2623   19.4295 C   0  0  0  0  0  0  0  0  0  0  0  0
  -10.1086    1.7323   20.2723 C   0  0  0  0  0  0  0  0  0  0  0  0
  1  4  1  0
  2  5  2  0
  2  9  1  0
  3  4  2  0
  4  5  1  0
  4  7  2  0
  5  6  1  0
  6 11  1  0
  6 12  1  0
  8 14  1  0
  8 15  1  0
  9 11  2  0
 10 13  1  0
 10 15  2  0
 12 13  1  0
 13 14  2  0
M  END
$$$$
