CypD-x0516-pandda-model
     RDKit          3D

 14 15  0  0  1  0  0  0  0  0999 V2000
  -11.2470   -0.9100   23.2330 C   0  0  0  0  0  0  0  0  0  0  0  0
  -11.5180    0.3130   21.1210 N   0  0  0  0  0  0  0  0  0  0  0  0
  -10.8190    1.3820   22.9570 O   0  0  0  0  0  0  0  0  0  0  0  0
  -11.1790    0.3600   22.4280 C   0  0  0  0  0  0  0  0  0  0  0  0
  -11.0760    2.4120   17.9670 N   0  0  0  0  0  0  0  0  0  0  0  0
  -11.6230    1.4950   20.2220 C   0  0  1  0  0  0  0  0  0  0  0  0
  -10.8970    1.2550   18.8890 C   0  0  0  0  0  0  0  0  0  0  0  0
  -12.3080    3.0620   17.9330 C   0  0  0  0  0  0  0  0  0  0  0  0
  -12.5570    3.9780   16.9220 C   0  0  0  0  0  0  0  0  0  0  0  0
  -13.7320    4.7040   16.8920 C   0  0  0  0  0  0  0  0  0  0  0  0
  -14.6950    4.4980   17.8620 C   0  0  0  0  0  0  0  0  0  0  0  0
  -14.4800    3.5570   18.8530 C   0  0  0  0  0  0  0  0  0  0  0  0
  -13.2960    2.8390   18.8930 C   0  0  0  0  0  0  0  0  0  0  0  0
  -13.1030    1.7980   19.9840 C   0  0  0  0  0  0  0  0  0  0  0  0
  1  4  1  0
  2  4  1  0
  6  2  1  1
  3  4  2  0
  5  7  1  0
  5  8  1  0
  6  7  1  0
  6 14  1  0
  8  9  2  0
  8 13  1  0
  9 10  1  0
 10 11  2  0
 11 12  1  0
 12 13  2  0
 13 14  1  0
M  END
$$$$
