CypD-x0238-pandda-model
     RDKit          3D

 14 15  0  0  1  0  0  0  0  0999 V2000
   -9.2956    2.2653   23.3043 C   0  0  0  0  0  0  0  0  0  0  0  0
   -9.6126   -0.0257   22.5964 N   0  0  0  0  0  0  0  0  0  0  0  0
  -10.2626    1.2860   22.6553 C   0  0  2  0  0  0  0  0  0  0  0  0
  -11.5830    2.4018   19.4441 N   0  0  0  0  0  0  0  0  0  0  0  0
  -10.6175    1.7114   21.2359 C   0  0  0  0  0  0  0  0  0  0  0  0
  -10.2834    2.1295   19.1907 N   0  0  0  0  0  0  0  0  0  0  0  0
  -11.7947    2.1246   20.7453 C   0  0  0  0  0  0  0  0  0  0  0  0
   -9.7056    1.7110   20.2579 N   0  0  0  0  0  0  0  0  0  0  0  0
  -12.4804    3.0540   18.5412 C   0  0  0  0  0  0  0  0  0  0  0  0
  -12.0292    3.5590   17.3212 C   0  0  0  0  0  0  0  0  0  0  0  0
  -12.8778    4.2602   16.4836 C   0  0  0  0  0  0  0  0  0  0  0  0
  -14.1962    4.4577   16.8403 C   0  0  0  0  0  0  0  0  0  0  0  0
  -14.6737    3.9315   18.0232 C   0  0  0  0  0  0  0  0  0  0  0  0
  -13.8266    3.2379   18.8649 C   0  0  0  0  0  0  0  0  0  0  0  0
  3  1  1  6
  2  3  1  0
  3  5  1  0
  4  6  1  0
  4  7  1  0
  4  9  1  0
  5  7  2  0
  5  8  1  0
  6  8  2  0
  9 10  2  0
  9 14  1  0
 10 11  1  0
 11 12  2  0
 12 13  1  0
 13 14  2  0
M  CHG  1   2   1
M  END
$$$$
