CypD-x0962-pandda-model
     RDKit          3D

 12 13  0  0  0  0  0  0  0  0999 V2000
  -12.5877    0.9977   18.9940 C   0  0  0  0  0  0  0  0  0  0  0  0
  -13.8203    0.7132   18.3939 N   0  0  0  0  0  0  0  0  0  0  0  0
  -12.0280    0.0531   19.8303 C   0  0  0  0  0  0  0  0  0  0  0  0
  -10.6997    2.4889   19.3443 N   0  0  0  0  0  0  0  0  0  0  0  0
  -10.8130    0.3433   20.4106 C   0  0  0  0  0  0  0  0  0  0  0  0
  -12.4829    3.1771   17.9536 N   0  0  0  0  0  0  0  0  0  0  0  0
  -10.2010    1.5523   20.1386 C   0  0  0  0  0  0  0  0  0  0  0  0
  -11.8818    2.2017   18.7891 C   0  0  0  0  0  0  0  0  0  0  0  0
  -13.5603    3.9652   18.2664 C   0  0  0  0  0  0  0  0  0  0  0  0
  -14.0218    4.6024   17.1604 C   0  0  0  0  0  0  0  0  0  0  0  0
  -13.2030    4.2027   16.1018 C   0  0  0  0  0  0  0  0  0  0  0  0
  -12.2870    3.3423   16.6113 C   0  0  0  0  0  0  0  0  0  0  0  0
  1  2  1  0
  1  3  2  0
  1  8  1  0
  3  5  1  0
  4  7  1  0
  4  8  2  0
  5  7  2  0
  6  8  1  0
  6  9  1  0
  6 12  1  0
  9 10  2  0
 10 11  1  0
 11 12  2  0
M  END
$$$$
