CypD-x0557-pandda-model
     RDKit          3D

 15 16  0  0  0  0  0  0  0  0999 V2000
  -12.3703    1.6782   22.9835 C   0  0  0  0  0  0  0  0  0  0  0  0
  -11.9639    1.1168   24.1431 N   0  0  0  0  0  0  0  0  0  0  0  0
  -13.4708    2.1948   22.9972 O   0  0  0  0  0  0  0  0  0  0  0  0
  -11.5416    1.7003   21.7894 C   0  0  0  0  0  0  0  0  0  0  0  0
   -9.9218    1.8444   19.4527 N   0  0  0  0  0  0  0  0  0  0  0  0
  -10.3056    1.0729   21.6888 C   0  0  0  0  0  0  0  0  0  0  0  0
  -11.4705    3.0698   18.3840 N   0  0  0  0  0  0  0  0  0  0  0  0
   -9.5552    1.1822   20.5374 C   0  0  0  0  0  0  0  0  0  0  0  0
  -11.1090    2.4132   19.5218 C   0  0  0  0  0  0  0  0  0  0  0  0
  -12.8555    2.9640   17.8666 C   0  0  0  0  0  0  0  0  0  0  0  0
  -12.8027    2.8499   16.3332 C   0  0  0  0  0  0  0  0  0  0  0  0
  -13.1550    4.2409   15.8686 C   0  0  0  0  0  0  0  0  0  0  0  0
  -13.5956    5.0083   16.8550 C   0  0  0  0  0  0  0  0  0  0  0  0
  -13.6250    4.2679   18.1681 C   0  0  0  0  0  0  0  0  0  0  0  0
  -11.9266    2.3726   20.6439 C   0  0  0  0  0  0  0  0  0  0  0  0
  1  2  1  0
  1  3  2  0
  1  4  1  0
  4  6  2  0
  4 15  1  0
  5  8  2  0
  5  9  1  0
  6  8  1  0
  7  9  1  0
  7 10  1  0
  9 15  2  0
 10 11  1  0
 10 14  1  0
 11 12  1  0
 12 13  2  0
 13 14  1  0
M  END
$$$$
