CypD-x0658-pandda-model
     RDKit          3D

 14 15  0  0  0  0  0  0  0  0999 V2000
  -10.0110   -0.1340   23.9460 C   0  0  0  0  0  0  0  0  0  0  0  0
   -8.6590   -0.1420   23.3260 N   0  0  0  0  0  0  0  0  0  0  0  0
   -8.6700   -0.6250   21.9290 C   0  0  0  0  0  0  0  0  0  0  0  0
   -9.8300    2.2000   19.8730 N   0  0  0  0  0  0  0  0  0  0  0  0
   -9.4350    0.3490   21.0460 C   0  0  0  0  0  0  0  0  0  0  0  0
  -10.8830    1.3560   19.7260 N   0  0  0  0  0  0  0  0  0  0  0  0
   -8.9870    1.6040   20.6530 C   0  0  0  0  0  0  0  0  0  0  0  0
  -10.6420    0.2250   20.4450 C   0  0  0  0  0  0  0  0  0  0  0  0
  -12.0250    1.6700   18.9280 C   0  0  0  0  0  0  0  0  0  0  0  0
  -11.8990    2.4730   17.7960 C   0  0  0  0  0  0  0  0  0  0  0  0
  -12.9980    2.7950   17.0200 C   0  0  0  0  0  0  0  0  0  0  0  0
  -14.2490    2.3150   17.3610 C   0  0  0  0  0  0  0  0  0  0  0  0
  -14.3940    1.5140   18.4790 C   0  0  0  0  0  0  0  0  0  0  0  0
  -13.2940    1.1950   19.2570 C   0  0  0  0  0  0  0  0  0  0  0  0
  1  2  1  0
  2  3  1  0
  3  5  1  0
  4  6  1  0
  4  7  2  0
  5  7  1  0
  5  8  2  0
  6  8  1  0
  6  9  1  0
  9 10  2  0
  9 14  1  0
 10 11  1  0
 11 12  2  0
 12 13  1  0
 13 14  2  0
M  CHG  1   2   1
M  END
$$$$
