CypD-x0083-pandda-model
     RDKit          3D

 14 14  0  0  0  0  0  0  0  0999 V2000
   -8.9137    1.6245   21.8553 C   0  0  0  0  0  0  0  0  0  0  0  0
  -11.1147    0.5270   20.7604 N   0  0  0  0  0  0  0  0  0  0  0  0
  -11.3176    2.6881   21.9480 O   0  0  0  0  0  0  0  0  0  0  0  0
  -10.4303    2.0336   21.0197 S   0  0  0  0  0  0  0  0  0  0  0  0
  -12.4296    0.5876   20.1191 C   0  0  0  0  0  0  0  0  0  0  0  0
  -10.0968    2.6121   19.7376 O   0  0  0  0  0  0  0  0  0  0  0  0
  -12.3632    0.8239   18.6011 C   0  0  0  0  0  0  0  0  0  0  0  0
  -13.0987    2.0951   18.1905 C   0  0  0  0  0  0  0  0  0  0  0  0
  -14.4729    2.1910   18.3789 C   0  0  0  0  0  0  0  0  0  0  0  0
  -15.1480    3.3481   18.0311 C   0  0  0  0  0  0  0  0  0  0  0  0
  -14.4268    4.3940   17.4890 C   0  0  0  0  0  0  0  0  0  0  0  0
  -13.0671    4.3170   17.2672 C   0  0  0  0  0  0  0  0  0  0  0  0
  -12.4024    3.1559   17.6245 C   0  0  0  0  0  0  0  0  0  0  0  0
  -15.0532    5.4961   17.1802 F   0  0  0  0  0  0  0  0  0  0  0  0
  1  4  1  0
  2  4  1  0
  2  5  1  0
  3  4  2  0
  4  6  2  0
  5  7  1  0
  7  8  1  0
  8  9  2  0
  8 13  1  0
  9 10  1  0
 10 11  2  0
 11 12  1  0
 11 14  1  0
 12 13  2  0
M  END
$$$$
