CypD-x0190-pandda-model
     RDKit          3D

 16 17  0  0  0  0  0  0  0  0999 V2000
   -8.9560    0.1180   24.1020 C   0  0  0  0  0  0  0  0  0  0  0  0
   -9.3030    1.3460   23.3230 N   0  0  0  0  0  0  0  0  0  0  0  0
  -10.1430    2.4100   19.3730 O   0  0  0  0  0  0  0  0  0  0  0  0
  -10.7840    1.5270   23.1240 C   0  0  0  0  0  0  0  0  0  0  0  0
  -10.5880    0.7240   20.7620 N   0  0  0  0  0  0  0  0  0  0  0  0
  -11.3710    0.6050   22.0280 C   0  0  0  0  0  0  0  0  0  0  0  0
  -12.2590    1.6490   19.3710 N   0  0  0  0  0  0  0  0  0  0  0  0
   -9.1280    0.4650   20.9610 C   0  0  0  0  0  0  0  0  0  0  0  0
   -8.5520    1.4270   22.0210 C   0  0  0  0  0  0  0  0  0  0  0  0
  -10.9640    1.6190   19.7950 C   0  0  0  0  0  0  0  0  0  0  0  0
  -12.9000    2.6140   18.5830 C   0  0  0  0  0  0  0  0  0  0  0  0
  -12.3050    3.1590   17.4490 C   0  0  0  0  0  0  0  0  0  0  0  0
  -12.9560    4.1270   16.7070 C   0  0  0  0  0  0  0  0  0  0  0  0
  -14.2110    4.5660   17.0860 C   0  0  0  0  0  0  0  0  0  0  0  0
  -14.8240    4.0200   18.2010 C   0  0  0  0  0  0  0  0  0  0  0  0
  -14.1720    3.0480   18.9380 C   0  0  0  0  0  0  0  0  0  0  0  0
  1  2  1  0
  2  4  1  0
  2  9  1  0
  3 10  2  0
  4  6  1  0
  5  6  1  0
  5  8  1  0
  5 10  1  0
  7 10  1  0
  7 11  1  0
  8  9  1  0
 11 12  2  0
 11 16  1  0
 12 13  1  0
 13 14  2  0
 14 15  1  0
 15 16  2  0
M  CHG  1   2   1
M  END
$$$$
