CypD-x0752-pandda-model
     RDKit          3D

 14 15  0  0  0  0  0  0  0  0999 V2000
  -13.3290    4.2290   16.5150 C   0  0  0  0  0  0  0  0  0  0  0  0
  -11.8930    2.3000   20.9240 N   0  0  0  0  0  0  0  0  0  0  0  0
   -9.6990    1.9700   20.2130 O   0  0  0  0  0  0  0  0  0  0  0  0
  -12.9600    2.7620   16.7570 C   0  0  0  0  0  0  0  0  0  0  0  0
  -11.8870    2.3140   22.2850 N   0  0  0  0  0  0  0  0  0  0  0  0
  -14.1150    1.8390   16.3500 C   0  0  0  0  0  0  0  0  0  0  0  0
  -13.9540    2.7570   21.5310 N   0  0  0  0  0  0  0  0  0  0  0  0
  -12.5530    2.5590   18.2130 C   0  0  0  0  0  0  0  0  0  0  0  0
  -13.5070    2.6890   19.1950 N   0  0  0  0  0  0  0  0  0  0  0  0
  -11.2760    2.2810   18.5790 C   0  0  0  0  0  0  0  0  0  0  0  0
  -10.8790    2.1500   19.9410 C   0  0  0  0  0  0  0  0  0  0  0  0
  -13.1190    2.5760   22.5650 C   0  0  0  0  0  0  0  0  0  0  0  0
  -13.6420    2.6900   23.9780 C   0  0  0  0  0  0  0  0  0  0  0  0
  -13.1640    2.5800   20.5360 C   0  0  0  0  0  0  0  0  0  0  0  0
  1  4  1  0
  2  5  1  0
  2 11  1  0
  2 14  1  0
  3 11  2  0
  4  6  1  0
  4  8  1  0
  5 12  2  0
  7 12  1  0
  7 14  2  0
  8  9  1  0
  8 10  2  0
  9 14  1  0
 10 11  1  0
 12 13  1  0
M  END
$$$$
