CypD-x0896-pandda-model
     RDKit          3D

 10 11  0  0  1  0  0  0  0  0999 V2000
  -11.4347    2.6083   18.2543 C   0  0  0  0  0  0  0  0  0  0  0  0
  -11.4425    3.2598   17.0830 N   0  0  0  0  0  0  0  0  0  0  0  0
  -10.4191    2.4163   18.8944 O   0  0  0  0  0  0  0  0  0  0  0  0
  -12.8149    3.3512   16.5425 C   0  0  0  0  0  0  0  0  0  0  0  0
  -12.6778    2.2298   18.6231 N   0  0  0  0  0  0  0  0  0  0  0  0
  -13.6801    2.6993   17.6395 C   0  0  1  0  0  0  0  0  0  0  0  0
  -14.6425    3.6664   18.3445 C   0  0  0  0  0  0  0  0  0  0  0  0
  -15.3085    3.0402   19.5898 C   0  0  0  0  0  0  0  0  0  0  0  0
  -14.6019    1.7658   20.0914 C   0  0  0  0  0  0  0  0  0  0  0  0
  -13.0747    1.8690   20.0028 C   0  0  0  0  0  0  0  0  0  0  0  0
  1  2  1  0
  1  3  2  0
  1  5  1  0
  2  4  1  0
  6  4  1  6
  5  6  1  0
  5 10  1  0
  6  7  1  0
  7  8  1  0
  8  9  1  0
  9 10  1  0
M  END
$$$$
