CypD-x0631-pandda-model
     RDKit          3D

 18 19  0  0  0  0  0  0  0  0999 V2000
  -10.7915    1.7841   20.3670 C   0  0  0  0  0  0  0  0  0  0  0  0
  -10.6183    1.0190   21.4598 N   0  0  0  0  0  0  0  0  0  0  0  0
   -9.8390    2.2533   19.7727 O   0  0  0  0  0  0  0  0  0  0  0  0
   -9.4972    1.1941   22.4047 C   0  0  0  0  0  0  0  0  0  0  0  0
  -10.9510    2.5667   23.9357 N   0  0  0  0  0  0  0  0  0  0  0  0
  -12.8670    1.7928   22.9563 O   0  0  0  0  0  0  0  0  0  0  0  0
  -10.0509    1.3816   23.8260 C   0  0  0  0  0  0  0  0  0  0  0  0
  -12.0747    2.0653   20.0235 N   0  0  0  0  0  0  0  0  0  0  0  0
  -10.4704    3.8009   24.5734 C   0  0  0  0  0  0  0  0  0  0  0  0
  -11.7242    4.6752   24.7201 C   0  0  0  0  0  0  0  0  0  0  0  0
  -12.8521    3.9646   23.9499 C   0  0  0  0  0  0  0  0  0  0  0  0
  -12.2493    2.6447   23.5567 C   0  0  0  0  0  0  0  0  0  0  0  0
  -12.5375    2.8576   18.9735 C   0  0  0  0  0  0  0  0  0  0  0  0
  -11.9456    2.8274   17.7172 C   0  0  0  0  0  0  0  0  0  0  0  0
  -12.4023    3.6467   16.7027 C   0  0  0  0  0  0  0  0  0  0  0  0
  -13.4573    4.5103   16.9334 C   0  0  0  0  0  0  0  0  0  0  0  0
  -14.0616    4.5396   18.1778 C   0  0  0  0  0  0  0  0  0  0  0  0
  -13.6101    3.7122   19.1875 C   0  0  0  0  0  0  0  0  0  0  0  0
  1  2  1  0
  1  3  2  0
  1  8  1  0
  2  4  1  0
  4  7  1  0
  5  7  1  0
  5  9  1  0
  5 12  1  0
  6 12  2  0
  8 13  1  0
  9 10  1  0
 10 11  1  0
 11 12  1  0
 13 14  2  0
 13 18  1  0
 14 15  1  0
 15 16  2  0
 16 17  1  0
 17 18  2  0
M  END
$$$$
