CypD-x0681-pandda-model
     RDKit          3D

 15 16  0  0  0  0  0  0  0  0999 V2000
  -12.4664    1.2379   25.0294 C   0  0  0  0  0  0  0  0  0  0  0  0
  -11.7875    1.4964   23.7536 N   0  0  0  0  0  0  0  0  0  0  0  0
  -10.1241    2.5501   19.3122 O   0  0  0  0  0  0  0  0  0  0  0  0
  -10.5437    1.9878   23.5917 C   0  0  0  0  0  0  0  0  0  0  0  0
  -11.8079    1.4603   20.3348 N   0  0  0  0  0  0  0  0  0  0  0  0
  -10.3221    2.0579   22.2635 C   0  0  0  0  0  0  0  0  0  0  0  0
  -12.7959    2.9738   17.7176 N   0  0  0  0  0  0  0  0  0  0  0  0
  -11.4985    1.5869   21.6841 C   0  0  0  0  0  0  0  0  0  0  0  0
  -12.7245    3.7963   16.6543 N   0  0  0  0  0  0  0  0  0  0  0  0
  -11.1884    1.9809   19.2456 C   0  0  0  0  0  0  0  0  0  0  0  0
  -12.3808    1.2454   22.5670 N   0  0  0  0  0  0  0  0  0  0  0  0
  -11.8603    1.8577   17.8999 C   0  0  0  0  0  0  0  0  0  0  0  0
  -13.8368    3.3010   18.5122 C   0  0  0  0  0  0  0  0  0  0  0  0
  -14.4506    4.3576   17.9459 C   0  0  0  0  0  0  0  0  0  0  0  0
  -13.7187    4.6184   16.7970 C   0  0  0  0  0  0  0  0  0  0  0  0
  1  2  1  0
  2  4  1  0
  2 11  1  0
  3 10  2  0
  4  6  2  0
  5  8  1  0
  5 10  1  0
  6  8  1  0
  7  9  1  0
  7 12  1  0
  7 13  1  0
  8 11  2  0
  9 15  2  0
 10 12  1  0
 13 14  2  0
 14 15  1  0
M  END
$$$$
