CypD-x0819-pandda-model
     RDKit          3D

 15 16  0  0  0  0  0  0  0  0999 V2000
  -12.1827   -1.2279   21.1915 C   0  0  0  0  0  0  0  0  0  0  0  0
   -9.6354    1.9218   20.0025 N   0  0  0  0  0  0  0  0  0  0  0  0
  -11.2630   -0.0944   20.7930 C   0  0  0  0  0  0  0  0  0  0  0  0
  -10.8679    2.0589   18.0973 N   0  0  0  0  0  0  0  0  0  0  0  0
  -10.2527    0.3358   21.6199 C   0  0  0  0  0  0  0  0  0  0  0  0
  -11.4751    0.4606   19.6275 N   0  0  0  0  0  0  0  0  0  0  0  0
   -9.4579    1.3674   21.1773 C   0  0  0  0  0  0  0  0  0  0  0  0
   -8.3501    1.9129   22.0501 C   0  0  0  0  0  0  0  0  0  0  0  0
  -10.6529    1.4476   19.2939 C   0  0  0  0  0  0  0  0  0  0  0  0
  -11.9449    2.8611   17.7296 C   0  0  0  0  0  0  0  0  0  0  0  0
  -12.9347    3.2313   18.6329 C   0  0  0  0  0  0  0  0  0  0  0  0
  -13.9697    4.0609   18.2451 C   0  0  0  0  0  0  0  0  0  0  0  0
  -14.0365    4.5250   16.9437 C   0  0  0  0  0  0  0  0  0  0  0  0
  -13.0635    4.1511   16.0352 C   0  0  0  0  0  0  0  0  0  0  0  0
  -12.0264    3.3276   16.4268 C   0  0  0  0  0  0  0  0  0  0  0  0
  1  3  1  0
  2  7  2  0
  2  9  1  0
  3  5  2  0
  3  6  1  0
  4  9  1  0
  4 10  1  0
  5  7  1  0
  6  9  2  0
  7  8  1  0
 10 11  2  0
 10 15  1  0
 11 12  1  0
 12 13  2  0
 13 14  1  0
 14 15  2  0
M  END
$$$$
