CypD-x0386-pandda-model
     RDKit          3D

 15 15  0  0  0  0  0  0  0  0999 V2000
  -10.8990    0.2551   20.5114 C   0  0  0  0  0  0  0  0  0  0  0  0
  -11.7108    1.0134   19.5209 N   0  0  0  0  0  0  0  0  0  0  0  0
  -15.2331    1.7037   19.8858 O   0  0  0  0  0  0  0  0  0  0  0  0
  -13.1648    0.5628   19.4593 C   0  0  0  0  0  0  0  0  0  0  0  0
  -13.8728    1.5983   21.5344 O   0  0  0  0  0  0  0  0  0  0  0  0
  -14.1623    1.3018   20.3657 C   0  0  0  0  0  0  0  0  0  0  0  0
  -10.1255    2.5774   19.1968 O   0  0  0  0  0  0  0  0  0  0  0  0
  -11.2802    2.2257   19.0191 C   0  0  0  0  0  0  0  0  0  0  0  0
  -12.1777    3.1297   18.3344 C   0  0  0  0  0  0  0  0  0  0  0  0
  -13.1352    3.8128   19.0772 C   0  0  0  0  0  0  0  0  0  0  0  0
  -14.0456    4.6589   18.4891 C   0  0  0  0  0  0  0  0  0  0  0  0
  -13.9558    4.8801   17.1345 C   0  0  0  0  0  0  0  0  0  0  0  0
  -13.0083    4.2500   16.3501 C   0  0  0  0  0  0  0  0  0  0  0  0
  -12.1284    3.3664   16.9570 C   0  0  0  0  0  0  0  0  0  0  0  0
  -14.7911    5.7166   16.5968 F   0  0  0  0  0  0  0  0  0  0  0  0
  1  2  1  0
  2  4  1  0
  2  8  1  0
  3  6  1  0
  4  6  1  0
  5  6  2  0
  7  8  2  0
  8  9  1  0
  9 10  2  0
  9 14  1  0
 10 11  1  0
 11 12  2  0
 12 13  1  0
 12 15  1  0
 13 14  2  0
M  CHG  1   3  -1
M  END
$$$$
