CypD-x0333-pandda-model
     RDKit          3D

 14 14  0  0  0  0  0  0  0  0999 V2000
  -15.2580    2.1800   22.1580 C   0  0  0  0  0  0  0  0  0  0  0  0
  -14.2450    2.9020   20.0470 N   0  0  0  0  0  0  0  0  0  0  0  0
  -16.1230    3.9170   20.8600 O   0  0  0  0  0  0  0  0  0  0  0  0
  -15.2480    3.0860   20.9520 C   0  0  0  0  0  0  0  0  0  0  0  0
  -10.0440    2.4060   19.7790 O   0  0  0  0  0  0  0  0  0  0  0  0
  -13.9330    3.4560   18.7940 C   0  0  0  0  0  0  0  0  0  0  0  0
  -11.8030    1.9400   20.9370 O   0  0  0  0  0  0  0  0  0  0  0  0
  -14.6710    4.4980   18.2410 C   0  0  0  0  0  0  0  0  0  0  0  0
  -14.3100    5.0700   17.0370 C   0  0  0  0  0  0  0  0  0  0  0  0
  -13.2050    4.5990   16.3550 C   0  0  0  0  0  0  0  0  0  0  0  0
  -12.4730    3.5490   16.8760 C   0  0  0  0  0  0  0  0  0  0  0  0
  -12.8320    2.9660   18.0810 C   0  0  0  0  0  0  0  0  0  0  0  0
  -12.0010    1.7750   18.5770 C   0  0  0  0  0  0  0  0  0  0  0  0
  -11.2280    2.0540   19.8440 C   0  0  0  0  0  0  0  0  0  0  0  0
  1  4  1  0
  2  4  1  0
  2  6  1  0
  3  4  2  0
  5 14  1  0
  6  8  2  0
  6 12  1  0
  7 14  2  0
  8  9  1  0
  9 10  2  0
 10 11  1  0
 11 12  2  0
 12 13  1  0
 13 14  1  0
M  CHG  1   5  -1
M  END
$$$$
