CypD-x0602-pandda-model
     RDKit          3D

 13 14  0  0  1  0  0  0  0  0999 V2000
  -11.3600    0.9190   19.2790 C   0  0  0  0  0  0  0  0  0  0  0  0
  -11.2210    1.9090   18.1580 N   0  0  0  0  0  0  0  0  0  0  0  0
  -11.3050    0.6260   21.6570 O   0  0  0  0  0  0  0  0  0  0  0  0
  -12.1800    2.7660   17.7310 C   0  0  0  0  0  0  0  0  0  0  0  0
  -14.0950    4.5150   16.7400 N   0  0  0  0  0  0  0  0  0  0  0  0
  -13.3480    3.0610   18.4500 C   0  0  0  0  0  0  0  0  0  0  0  0
  -14.2890    3.9210   17.9410 C   0  0  0  0  0  0  0  0  0  0  0  0
  -12.9830    4.2540   16.0130 C   0  0  0  0  0  0  0  0  0  0  0  0
  -12.0340    3.3900   16.4900 C   0  0  0  0  0  0  0  0  0  0  0  0
  -10.8730    1.4770   20.6350 C   0  0  1  0  0  0  0  0  0  0  0  0
   -9.3600    1.5010   20.7870 C   0  0  0  0  0  0  0  0  0  0  0  0
   -9.0450    0.1020   21.2770 C   0  0  0  0  0  0  0  0  0  0  0  0
  -10.3250   -0.3210   21.9880 C   0  0  0  0  0  0  0  0  0  0  0  0
  1  2  1  0
 10  1  1  6
  2  4  1  0
  3 10  1  0
  3 13  1  0
  4  6  2  0
  4  9  1  0
  5  7  2  0
  5  8  1  0
  6  7  1  0
  8  9  2  0
 10 11  1  0
 11 12  1  0
 12 13  1  0
M  CHG  1   5   1
M  END
$$$$
