CypD-x0887-pandda-model
     RDKit          3D

 14 15  0  0  0  0  0  0  0  0999 V2000
  -11.0480    1.7720   19.7070 C   0  0  0  0  0  0  0  0  0  0  0  0
  -12.3590    1.7930   19.3280 N   0  0  0  0  0  0  0  0  0  0  0  0
  -10.2530    2.5780   19.2610 O   0  0  0  0  0  0  0  0  0  0  0  0
  -13.0350    2.7320   18.5390 C   0  0  0  0  0  0  0  0  0  0  0  0
  -10.6390    0.8570   20.6350 N   0  0  0  0  0  0  0  0  0  0  0  0
  -14.3280    3.1010   18.8910 C   0  0  0  0  0  0  0  0  0  0  0  0
  -15.0180    4.0550   18.1650 C   0  0  0  0  0  0  0  0  0  0  0  0
  -14.4200    4.6530   17.0700 C   0  0  0  0  0  0  0  0  0  0  0  0
  -13.1450    4.2770   16.6890 C   0  0  0  0  0  0  0  0  0  0  0  0
  -12.4590    3.3210   17.4160 C   0  0  0  0  0  0  0  0  0  0  0  0
   -9.2970    0.9270   21.2580 C   0  0  0  0  0  0  0  0  0  0  0  0
   -9.1630   -0.3660   22.0540 C   0  0  0  0  0  0  0  0  0  0  0  0
  -10.1520   -1.3320   21.4060 C   0  0  0  0  0  0  0  0  0  0  0  0
  -11.2850   -0.4440   20.9060 C   0  0  0  0  0  0  0  0  0  0  0  0
  1  2  1  0
  1  3  2  0
  1  5  1  0
  2  4  1  0
  4  6  2  0
  4 10  1  0
  5 11  1  0
  5 14  1  0
  6  7  1  0
  7  8  2  0
  8  9  1  0
  9 10  2  0
 11 12  1  0
 12 13  1  0
 13 14  1  0
M  END
$$$$
