CypD-x0127-pandda-model
     RDKit          3D

 13 13  0  0  0  0  0  0  0  0999 V2000
  -10.6310   -1.8970   21.1890 C   0  0  0  0  0  0  0  0  0  0  0  0
  -11.8420    1.4760   19.2270 N   0  0  0  0  0  0  0  0  0  0  0  0
  -11.0090   -0.7840   20.4430 O   0  0  0  0  0  0  0  0  0  0  0  0
  -10.0600    0.2570   20.4510 C   0  0  0  0  0  0  0  0  0  0  0  0
   -9.7600    2.3550   19.4220 O   0  0  0  0  0  0  0  0  0  0  0  0
  -10.5420    1.4600   19.6450 C   0  0  0  0  0  0  0  0  0  0  0  0
  -14.6990    5.5940   16.9190 O   0  0  0  0  0  0  0  0  0  0  0  0
  -12.5670    2.4950   18.5940 C   0  0  0  0  0  0  0  0  0  0  0  0
  -13.9050    2.6860   18.9260 C   0  0  0  0  0  0  0  0  0  0  0  0
  -14.6360    3.7150   18.3600 C   0  0  0  0  0  0  0  0  0  0  0  0
  -14.0240    4.5670   17.4570 C   0  0  0  0  0  0  0  0  0  0  0  0
  -12.7090    4.3670   17.0860 C   0  0  0  0  0  0  0  0  0  0  0  0
  -11.9850    3.3320   17.6470 C   0  0  0  0  0  0  0  0  0  0  0  0
  1  3  1  0
  2  6  1  0
  2  8  1  0
  3  4  1  0
  4  6  1  0
  5  6  2  0
  7 11  1  0
  8  9  2  0
  8 13  1  0
  9 10  1  0
 10 11  2  0
 11 12  1  0
 12 13  2  0
M  END
$$$$
