CypD-x0642-pandda-model
     RDKit          3D

 13 13  0  0  1  0  0  0  0  0999 V2000
  -11.7790   -0.7320   20.2860 C   0  0  0  0  0  0  0  0  0  0  0  0
  -11.7400    1.4010   18.2760 N   0  0  0  0  0  0  0  0  0  0  0  0
   -9.5250   -0.0830   20.4660 O   0  0  0  0  0  0  0  0  0  0  0  0
  -10.8110    0.4470   20.4350 C   0  0  1  0  0  0  0  0  0  0  0  0
  -12.7140    4.5680   16.8350 N   0  0  0  0  0  0  0  0  0  0  0  0
  -10.1910    2.5000   19.4510 O   0  0  0  0  0  0  0  0  0  0  0  0
  -10.9060    1.5320   19.3430 C   0  0  0  0  0  0  0  0  0  0  0  0
  -11.7720    2.3680   17.1410 C   0  0  0  0  0  0  0  0  0  0  0  0
  -12.9680    3.3160   17.1830 C   0  0  0  0  0  0  0  0  0  0  0  0
  -14.2310    2.8650   17.5430 C   0  0  0  0  0  0  0  0  0  0  0  0
  -15.2960    3.7410   17.5450 C   0  0  0  0  0  0  0  0  0  0  0  0
  -15.0310    5.0430   17.1770 C   0  0  0  0  0  0  0  0  0  0  0  0
  -13.7390    5.3980   16.8370 C   0  0  0  0  0  0  0  0  0  0  0  0
  4  1  1  6
  2  7  1  0
  2  8  1  0
  3  4  1  0
  4  7  1  0
  5  9  2  0
  5 13  1  0
  6  7  2  0
  8  9  1  0
  9 10  1  0
 10 11  2  0
 11 12  1  0
 12 13  2  0
M  END
$$$$
