CypD-x0417-pandda-model
     RDKit          3D

 13 13  0  0  0  0  0  0  0  0999 V2000
  -10.4526    0.4684   22.0022 C   0  0  0  0  0  0  0  0  0  0  0  0
  -11.9267    1.3409   19.1927 N   0  0  0  0  0  0  0  0  0  0  0  0
   -9.9274    2.3616   19.4548 O   0  0  0  0  0  0  0  0  0  0  0  0
  -10.1369    0.2744   20.5129 C   0  0  0  0  0  0  0  0  0  0  0  0
  -16.0498    3.7379   18.3467 N   0  0  0  0  0  0  0  0  0  0  0  0
  -10.6541    1.4209   19.6648 C   0  0  0  0  0  0  0  0  0  0  0  0
  -12.6632    2.2995   18.4862 C   0  0  0  0  0  0  0  0  0  0  0  0
  -12.0880    2.9581   17.4039 C   0  0  0  0  0  0  0  0  0  0  0  0
  -12.8076    3.8836   16.6744 C   0  0  0  0  0  0  0  0  0  0  0  0
  -14.1162    4.1496   17.0176 C   0  0  0  0  0  0  0  0  0  0  0  0
  -14.7156    3.4915   18.0815 C   0  0  0  0  0  0  0  0  0  0  0  0
  -13.9821    2.5830   18.8424 C   0  0  0  0  0  0  0  0  0  0  0  0
  -14.6333    1.9111   20.0560 C   0  0  0  0  0  0  0  0  0  0  0  0
  1  4  1  0
  2  6  1  0
  2  7  1  0
  3  6  2  0
  4  6  1  0
  5 11  1  0
  7  8  2  0
  7 12  1  0
  8  9  1  0
  9 10  2  0
 10 11  1  0
 11 12  2  0
 12 13  1  0
M  END
$$$$
