CypD-x0595-pandda-model
     RDKit          3D

 16 17  0  0  0  0  0  0  0  0999 V2000
  -17.0390    4.1100   18.0870 C   0  0  0  0  0  0  0  0  0  0  0  0
   -9.5000    0.5130   23.5020 N   0  0  0  0  0  0  0  0  0  0  0  0
  -15.7010    4.4860   17.8180 O   0  0  0  0  0  0  0  0  0  0  0  0
  -14.6510    3.7850   18.2970 C   0  0  0  0  0  0  0  0  0  0  0  0
  -10.0560    2.0450   19.1310 O   0  0  0  0  0  0  0  0  0  0  0  0
  -13.4520    3.8920   17.6140 C   0  0  0  0  0  0  0  0  0  0  0  0
  -12.3290    3.2240   18.0630 C   0  0  0  0  0  0  0  0  0  0  0  0
  -12.3380    2.4490   19.2290 C   0  0  0  0  0  0  0  0  0  0  0  0
  -13.5750    2.3250   19.8790 C   0  0  0  0  0  0  0  0  0  0  0  0
  -14.7100    2.9760   19.4250 C   0  0  0  0  0  0  0  0  0  0  0  0
  -11.0940    1.8730   19.7150 C   0  0  0  0  0  0  0  0  0  0  0  0
  -10.9960    1.1010   21.0450 C   0  0  0  0  0  0  0  0  0  0  0  0
  -10.8940    2.0890   22.2260 C   0  0  0  0  0  0  0  0  0  0  0  0
  -10.6940    1.3840   23.5700 C   0  0  0  0  0  0  0  0  0  0  0  0
   -9.5770   -0.5230   22.4450 C   0  0  0  0  0  0  0  0  0  0  0  0
   -9.7730    0.1500   21.0850 C   0  0  0  0  0  0  0  0  0  0  0  0
  1  3  1  0
  2 14  1  0
  2 15  1  0
  3  4  1  0
  4  6  2  0
  4 10  1  0
  5 11  2  0
  6  7  1  0
  7  8  2  0
  8  9  1  0
  8 11  1  0
  9 10  2  0
 11 12  1  0
 12 13  1  0
 12 16  1  0
 13 14  1  0
 15 16  1  0
M  CHG  1   2   1
M  END
$$$$
