CypD-x0638-pandda-model
     RDKit          3D

 15 16  0  0  0  0  0  0  0  0999 V2000
  -12.3920    4.5580   24.7010 C   0  0  0  0  0  0  0  0  0  0  0  0
  -12.8450    2.0230   19.7980 N   0  0  0  0  0  0  0  0  0  0  0  0
  -10.8590    2.4090   18.8670 O   0  0  0  0  0  0  0  0  0  0  0  0
  -10.1480    2.2830   22.2960 S   0  0  0  0  0  0  0  0  0  0  0  0
  -11.7410    3.6250   23.7050 C   0  0  0  0  0  0  0  0  0  0  0  0
  -14.0990    4.9820   17.0450 N   0  0  0  0  0  0  0  0  0  0  0  0
  -10.4220    3.4170   23.5800 C   0  0  0  0  0  0  0  0  0  0  0  0
  -13.7850    4.1880   18.0890 N   0  0  0  0  0  0  0  0  0  0  0  0
  -11.8730    2.1820   22.0520 C   0  0  0  0  0  0  0  0  0  0  0  0
  -12.5640    2.9210   22.8370 N   0  0  0  0  0  0  0  0  0  0  0  0
  -12.3230    1.2450   20.9430 C   0  0  0  0  0  0  0  0  0  0  0  0
  -12.0590    2.6070   18.8570 C   0  0  0  0  0  0  0  0  0  0  0  0
  -12.6460    3.4850   17.8960 C   0  0  0  0  0  0  0  0  0  0  0  0
  -12.2240    3.8330   16.6540 C   0  0  0  0  0  0  0  0  0  0  0  0
  -13.1410    4.7550   16.1900 C   0  0  0  0  0  0  0  0  0  0  0  0
  1  5  1  0
  2 11  1  0
  2 12  1  0
  3 12  2  0
  4  7  1  0
  4  9  1  0
  5  7  2  0
  5 10  1  0
  6  8  1  0
  6 15  2  0
  8 13  1  0
  9 10  2  0
  9 11  1  0
 12 13  1  0
 13 14  2  0
 14 15  1  0
M  END
$$$$
