CypD-x0672-pandda-model
     RDKit          3D

 14 15  0  0  0  0  0  0  0  0999 V2000
  -13.3300    3.2320   18.6730 C   0  0  0  0  0  0  0  0  0  0  0  0
  -10.3340    2.0420   19.1410 N   0  0  0  0  0  0  0  0  0  0  0  0
  -14.1390    4.2810   18.2790 C   0  0  0  0  0  0  0  0  0  0  0  0
   -8.6510    0.5960   21.8330 N   0  0  0  0  0  0  0  0  0  0  0  0
  -13.9460    4.8470   17.0320 C   0  0  0  0  0  0  0  0  0  0  0  0
   -9.5170   -0.4120   21.5270 N   0  0  0  0  0  0  0  0  0  0  0  0
  -12.9520    4.3510   16.2060 C   0  0  0  0  0  0  0  0  0  0  0  0
  -12.1440    3.3030   16.6210 C   0  0  0  0  0  0  0  0  0  0  0  0
  -12.3210    2.7250   17.8700 C   0  0  0  0  0  0  0  0  0  0  0  0
  -11.4450    1.5620   18.3070 C   0  0  0  0  0  0  0  0  0  0  0  0
   -9.9190    1.2920   20.1020 C   0  0  0  0  0  0  0  0  0  0  0  0
   -8.8760    1.5670   21.0380 C   0  0  0  0  0  0  0  0  0  0  0  0
  -10.2400   -0.0310   20.5470 C   0  0  0  0  0  0  0  0  0  0  0  0
  -13.5400    2.7210   19.8560 F   0  0  0  0  0  0  0  0  0  0  0  0
  1  3  2  0
  1  9  1  0
  1 14  1  0
  2 10  1  0
  2 11  2  0
  3  5  1  0
  4  6  1  0
  4 12  2  0
  5  7  2  0
  6 13  2  0
  7  8  1  0
  8  9  2  0
  9 10  1  0
 11 12  1  0
 11 13  1  0
M  END
$$$$
