CypD-x0508-pandda-model
     RDKit          3D

 14 15  0  0  0  0  0  0  0  0999 V2000
   -9.3260    0.7100   21.2170 C   0  0  0  0  0  0  0  0  0  0  0  0
  -10.7090    0.9420   20.7150 N   0  0  0  0  0  0  0  0  0  0  0  0
  -10.1980    2.4570   19.1760 O   0  0  0  0  0  0  0  0  0  0  0  0
  -11.0770    1.8580   19.7690 C   0  0  0  0  0  0  0  0  0  0  0  0
  -14.7130    2.1990   19.7440 N   0  0  0  0  0  0  0  0  0  0  0  0
  -12.4760    2.1340   19.5390 C   0  0  0  0  0  0  0  0  0  0  0  0
  -13.5690    1.6240   20.1900 C   0  0  0  0  0  0  0  0  0  0  0  0
  -16.0900    1.8320   20.1130 C   0  0  0  0  0  0  0  0  0  0  0  0
  -14.3730    3.1210   18.7890 C   0  0  0  0  0  0  0  0  0  0  0  0
  -15.1740    4.0080   18.0650 C   0  0  0  0  0  0  0  0  0  0  0  0
  -14.5850    4.8130   17.1200 C   0  0  0  0  0  0  0  0  0  0  0  0
  -13.2150    4.7220   16.8640 C   0  0  0  0  0  0  0  0  0  0  0  0
  -12.4280    3.8520   17.5840 C   0  0  0  0  0  0  0  0  0  0  0  0
  -12.9970    3.0650   18.5930 C   0  0  0  0  0  0  0  0  0  0  0  0
  1  2  1  0
  2  4  1  0
  3  4  2  0
  4  6  1  0
  5  7  1  0
  5  8  1  0
  5  9  1  0
  6  7  2  0
  6 14  1  0
  9 10  2  0
  9 14  1  0
 10 11  1  0
 11 12  2  0
 12 13  1  0
 13 14  2  0
M  END
$$$$
