CypD-x0962-pandda-model
     RDKit          3D

 12 13  0  0  0  0  0  0  0  0999 V2000
  -11.8970    0.7570   19.7430 C   0  0  0  0  0  0  0  0  0  0  0  0
  -13.1220    0.1690   19.4170 N   0  0  0  0  0  0  0  0  0  0  0  0
  -11.0900    0.0900   20.6450 C   0  0  0  0  0  0  0  0  0  0  0  0
  -10.2370    2.5000   19.4920 N   0  0  0  0  0  0  0  0  0  0  0  0
   -9.8720    0.6450   20.9640 C   0  0  0  0  0  0  0  0  0  0  0  0
  -12.2860    2.7410   18.3450 N   0  0  0  0  0  0  0  0  0  0  0  0
   -9.4960    1.8310   20.3670 C   0  0  0  0  0  0  0  0  0  0  0  0
  -11.4370    1.9840   19.2120 C   0  0  0  0  0  0  0  0  0  0  0  0
  -13.6190    3.0290   18.5130 C   0  0  0  0  0  0  0  0  0  0  0  0
  -14.0850    3.7810   17.4820 C   0  0  0  0  0  0  0  0  0  0  0  0
  -13.0030    4.0040   16.6280 C   0  0  0  0  0  0  0  0  0  0  0  0
  -11.9360    3.3680   17.1780 C   0  0  0  0  0  0  0  0  0  0  0  0
  1  2  1  0
  1  3  2  0
  1  8  1  0
  3  5  1  0
  4  7  1  0
  4  8  2  0
  5  7  2  0
  6  8  1  0
  6  9  1  0
  6 12  1  0
  9 10  2  0
 10 11  1  0
 11 12  2  0
M  END
$$$$
