CypD-x0127-pandda-model
     RDKit          3D

 13 13  0  0  0  0  0  0  0  0999 V2000
  -10.6113   -1.7310   21.4521 C   0  0  0  0  0  0  0  0  0  0  0  0
  -11.9547    1.8369   19.7354 N   0  0  0  0  0  0  0  0  0  0  0  0
  -11.0859   -0.5847   20.8170 O   0  0  0  0  0  0  0  0  0  0  0  0
  -10.1944    0.5070   20.9137 C   0  0  0  0  0  0  0  0  0  0  0  0
   -9.8303    2.6058   19.8970 O   0  0  0  0  0  0  0  0  0  0  0  0
  -10.6487    1.7396   20.1237 C   0  0  0  0  0  0  0  0  0  0  0  0
  -14.7345    5.6921   16.9473 O   0  0  0  0  0  0  0  0  0  0  0  0
  -12.6293    2.8220   19.0074 C   0  0  0  0  0  0  0  0  0  0  0  0
  -13.9688    3.0556   19.2973 C   0  0  0  0  0  0  0  0  0  0  0  0
  -14.6872    4.0165   18.6093 C   0  0  0  0  0  0  0  0  0  0  0  0
  -14.0580    4.7542   17.6221 C   0  0  0  0  0  0  0  0  0  0  0  0
  -12.7333    4.5205   17.3054 C   0  0  0  0  0  0  0  0  0  0  0  0
  -12.0206    3.5538   17.9916 C   0  0  0  0  0  0  0  0  0  0  0  0
  1  3  1  0
  2  6  1  0
  2  8  1  0
  3  4  1  0
  4  6  1  0
  5  6  2  0
  7 11  1  0
  8  9  2  0
  8 13  1  0
  9 10  1  0
 10 11  2  0
 11 12  1  0
 12 13  2  0
M  END
$$$$
