CypD-x0291-pandda-model
     RDKit          3D

 15 16  0  0  0  0  0  0  0  0999 V2000
  -13.6168    2.6765   20.3897 C   0  0  0  0  0  0  0  0  0  0  0  0
  -11.0965    2.0185   19.0238 N   0  0  0  0  0  0  0  0  0  0  0  0
   -7.9561   -0.9718   20.0890 O   0  0  0  0  0  0  0  0  0  0  0  0
  -13.2813    3.1506   18.9795 C   0  0  0  0  0  0  0  0  0  0  0  0
   -9.2303    1.7010   20.0214 N   0  0  0  0  0  0  0  0  0  0  0  0
   -9.8832   -1.7316   20.5937 O   0  0  0  0  0  0  0  0  0  0  0  0
  -14.1714    3.9758   18.3111 C   0  0  0  0  0  0  0  0  0  0  0  0
  -10.0029    2.5993   19.5339 N   0  0  0  0  0  0  0  0  0  0  0  0
  -13.9021    4.4406   17.0383 C   0  0  0  0  0  0  0  0  0  0  0  0
  -12.7365    4.0640   16.4069 C   0  0  0  0  0  0  0  0  0  0  0  0
  -11.8427    3.2404   17.0631 C   0  0  0  0  0  0  0  0  0  0  0  0
  -12.0897    2.7845   18.3550 C   0  0  0  0  0  0  0  0  0  0  0  0
  -10.9940    0.7036   19.2214 C   0  0  0  0  0  0  0  0  0  0  0  0
   -9.8049    0.4901   19.8376 C   0  0  0  0  0  0  0  0  0  0  0  0
   -9.1832   -0.7747   20.2240 C   0  0  0  0  0  0  0  0  0  0  0  0
  1  4  1  0
  2  8  1  0
  2 12  1  0
  2 13  1  0
  3 15  1  0
  4  7  2  0
  4 12  1  0
  5  8  2  0
  5 14  1  0
  6 15  2  0
  7  9  1  0
  9 10  2  0
 10 11  1  0
 11 12  2  0
 13 14  2  0
 14 15  1  0
M  CHG  1   3  -1
M  END
$$$$
