CypD-x0166-pandda-model
     RDKit          3D

 14 15  0  0  0  0  0  0  0  0999 V2000
  -14.3380    2.0140   16.6000 C   0  0  0  0  0  0  0  0  0  0  0  0
  -11.6390    1.0800   20.6460 N   0  0  0  0  0  0  0  0  0  0  0  0
   -9.5990    1.1660   19.6490 O   0  0  0  0  0  0  0  0  0  0  0  0
  -13.3300    2.9880   17.2200 C   0  0  0  0  0  0  0  0  0  0  0  0
  -11.4480    0.4310   21.7480 N   0  0  0  0  0  0  0  0  0  0  0  0
  -13.9960    4.3310   17.5370 C   0  0  0  0  0  0  0  0  0  0  0  0
  -13.5740    1.1160   21.6720 N   0  0  0  0  0  0  0  0  0  0  0  0
  -12.6820    2.3610   18.4590 C   0  0  0  0  0  0  0  0  0  0  0  0
  -13.4790    2.0900   19.5380 N   0  0  0  0  0  0  0  0  0  0  0  0
  -11.3660    2.0580   18.4770 C   0  0  0  0  0  0  0  0  0  0  0  0
  -10.7840    1.4210   19.6030 C   0  0  0  0  0  0  0  0  0  0  0  0
  -12.6570    0.5100   22.3300 C   0  0  0  0  0  0  0  0  0  0  0  0
  -12.8890   -0.0970   23.6940 C   0  0  0  0  0  0  0  0  0  0  0  0
  -12.9350    1.4900   20.5480 C   0  0  0  0  0  0  0  0  0  0  0  0
  1  4  1  0
  2  5  2  0
  2 11  1  0
  2 14  1  0
  3 11  2  0
  4  6  1  0
  4  8  1  0
  5 12  1  0
  7 12  2  0
  7 14  1  0
  8  9  1  0
  8 10  2  0
  9 14  2  0
 10 11  1  0
 12 13  1  0
M  CHG  1   2   1
M  END
$$$$
