CypD-x0897-pandda-model
     RDKit          3D

 15 17  0  0  1  0  0  0  0  0999 V2000
  -17.0336    0.4528   20.1470 C   0  0  0  0  0  0  0  0  0  0  0  0
  -15.1071    0.8702   21.6440 N   0  0  0  0  0  0  0  0  0  0  0  0
  -16.5599    0.5594   21.6046 C   0  0  0  0  0  0  0  0  0  0  0  0
  -11.4432    2.6340   17.2203 N   0  0  0  0  0  0  0  0  0  0  0  0
  -14.7861    2.2105   21.0479 C   0  0  0  0  0  0  0  0  0  0  0  0
  -15.5426    2.4725   19.7264 C   0  0  2  0  0  0  0  0  0  0  0  0
  -16.1447    1.1904   19.1246 C   0  0  0  0  0  0  0  0  0  0  0  0
  -14.6520    3.1761   18.7070 C   0  0  0  0  0  0  0  0  0  0  0  0
  -15.0848    4.3377   18.1040 C   0  0  0  0  0  0  0  0  0  0  0  0
  -14.3057    4.9897   17.1428 C   0  0  0  0  0  0  0  0  0  0  0  0
  -13.0845    4.4824   16.7722 C   0  0  0  0  0  0  0  0  0  0  0  0
  -12.6226    3.3192   17.3885 C   0  0  0  0  0  0  0  0  0  0  0  0
  -11.4640    1.5593   18.0586 C   0  0  0  0  0  0  0  0  0  0  0  0
  -12.6313    1.5353   18.7396 C   0  0  0  0  0  0  0  0  0  0  0  0
  -13.3943    2.6588   18.3448 C   0  0  0  0  0  0  0  0  0  0  0  0
  1  3  1  0
  1  7  1  0
  2  3  1  0
  2  5  1  0
  4 12  1  0
  4 13  1  0
  5  6  1  0
  6  7  1  0
  6  8  1  6
  8  9  1  0
  8 15  2  0
  9 10  2  0
 10 11  1  0
 11 12  2  0
 12 15  1  0
 13 14  2  0
 14 15  1  0
M  CHG  1   2   1
M  END
$$$$
