CypD-x0386-pandda-model
     RDKit          3D

 15 15  0  0  0  0  0  0  0  0999 V2000
  -11.0563    1.4691   22.3171 C   0  0  0  0  0  0  0  0  0  0  0  0
  -11.9695    1.9249   21.2251 N   0  0  0  0  0  0  0  0  0  0  0  0
  -14.5955    3.8393   22.3974 O   0  0  0  0  0  0  0  0  0  0  0  0
  -13.4310    1.8396   21.6387 C   0  0  0  0  0  0  0  0  0  0  0  0
  -13.5669    2.7056   23.8802 O   0  0  0  0  0  0  0  0  0  0  0  0
  -13.8904    2.8575   22.6986 C   0  0  0  0  0  0  0  0  0  0  0  0
  -10.2695    2.4247   19.8546 O   0  0  0  0  0  0  0  0  0  0  0  0
  -11.4768    2.4459   20.0396 C   0  0  0  0  0  0  0  0  0  0  0  0
  -12.2869    3.0507   18.9910 C   0  0  0  0  0  0  0  0  0  0  0  0
  -13.3968    3.8691   19.2340 C   0  0  0  0  0  0  0  0  0  0  0  0
  -14.0897    4.4904   18.2149 C   0  0  0  0  0  0  0  0  0  0  0  0
  -13.6348    4.3222   16.9259 C   0  0  0  0  0  0  0  0  0  0  0  0
  -12.5556    3.5208   16.6210 C   0  0  0  0  0  0  0  0  0  0  0  0
  -11.9039    2.8793   17.6559 C   0  0  0  0  0  0  0  0  0  0  0  0
  -14.2354    4.9569   15.9736 F   0  0  0  0  0  0  0  0  0  0  0  0
  1  2  1  0
  2  4  1  0
  2  8  1  0
  3  6  1  0
  4  6  1  0
  5  6  2  0
  7  8  2  0
  8  9  1  0
  9 10  2  0
  9 14  1  0
 10 11  1  0
 11 12  2  0
 12 13  1  0
 12 15  1  0
 13 14  2  0
M  CHG  1   3  -1
M  END
$$$$
