CypD-x0812-pandda-model
     RDKit          3D

 15 15  0  0  0  0  0  0  0  0999 V2000
  -13.0330    4.2590   16.1090 C   0  0  0  0  0  0  0  0  0  0  0  0
  -12.9650    3.7000   17.4590 N   0  0  0  0  0  0  0  0  0  0  0  0
  -10.4730    2.7320   19.0330 O   0  0  0  0  0  0  0  0  0  0  0  0
  -14.5010    3.5450   18.1570 S   0  0  0  0  0  0  0  0  0  0  0  0
  -12.1670    2.4350   17.4360 C   0  0  0  0  0  0  0  0  0  0  0  0
  -11.8960    1.0770   19.5910 N   0  0  0  0  0  0  0  0  0  0  0  0
  -15.2790    4.7100   17.7950 O   0  0  0  0  0  0  0  0  0  0  0  0
  -11.4550    2.0790   18.7550 C   0  0  0  0  0  0  0  0  0  0  0  0
  -15.0280    2.2450   17.8130 O   0  0  0  0  0  0  0  0  0  0  0  0
  -11.2260    0.8420   20.9080 C   0  0  0  0  0  0  0  0  0  0  0  0
  -10.6610   -0.5830   20.9590 C   0  0  0  0  0  0  0  0  0  0  0  0
  -11.6780   -1.6660   20.5520 C   0  0  0  0  0  0  0  0  0  0  0  0
  -13.0560   -1.0780   20.2130 C   0  0  0  0  0  0  0  0  0  0  0  0
  -12.9560    0.0870   19.2170 C   0  0  0  0  0  0  0  0  0  0  0  0
  -14.2370    3.6440   19.9150 C   0  0  0  0  0  0  0  0  0  0  0  0
  1  2  1  0
  2  4  1  0
  2  5  1  0
  3  8  2  0
  4  7  2  0
  4  9  2  0
  4 15  1  0
  5  8  1  0
  6  8  1  0
  6 10  1  0
  6 14  1  0
 10 11  1  0
 11 12  1  0
 12 13  1  0
 13 14  1  0
M  END
$$$$
