CypD-x0880-pandda-model
     RDKit          3D

 15 16  0  0  1  0  0  0  0  0999 V2000
  -13.2588    2.6375   21.5396 C   0  0  0  0  0  0  0  0  0  0  0  0
  -12.5837    3.6096   18.6166 N   0  0  0  0  0  0  0  0  0  0  0  0
  -16.3386    5.1081   19.0331 O   0  0  0  0  0  0  0  0  0  0  0  0
  -11.9749    2.4128   20.7452 C   0  0  0  0  0  0  0  0  0  0  0  0
  -13.5097    4.5253   16.8580 N   0  0  0  0  0  0  0  0  0  0  0  0
  -16.2962    4.0186   17.1585 O   0  0  0  0  0  0  0  0  0  0  0  0
  -10.9729    1.7828   21.4267 C   0  0  0  0  0  0  0  0  0  0  0  0
  -12.4584    3.8881   17.2283 N   0  0  0  0  0  0  0  0  0  0  0  0
   -9.7944    1.3726   20.8039 C   0  0  0  0  0  0  0  0  0  0  0  0
   -9.6762    1.5474   19.4263 C   0  0  0  0  0  0  0  0  0  0  0  0
  -10.6287    2.2048   18.7095 C   0  0  0  0  0  0  0  0  0  0  0  0
  -11.8017    2.7971   19.3281 C   0  0  0  0  0  0  0  0  0  0  0  0
  -13.7616    4.2193   18.9941 C   0  0  0  0  0  0  0  0  0  0  0  0
  -14.3585    4.7123   17.9207 C   0  0  0  0  0  0  0  0  0  0  0  0
  -15.7804    5.1201   17.7935 C   0  0  2  0  0  0  0  0  0  0  0  0
  1  4  1  0
  2  8  1  0
  2 12  1  0
  2 13  1  0
 15  3  1  1
  4  7  2  0
  4 12  1  0
  5  8  2  0
  5 14  1  0
  6 15  1  0
  7  9  1  0
  9 10  2  0
 10 11  1  0
 11 12  2  0
 13 14  2  0
 14 15  1  0
M  CHG  3   2   2   3  -1   5   1
M  END
$$$$
