CypD-x0606-pandda-model
     RDKit          3D

 13 13  0  0  0  0  0  0  0  0999 V2000
  -13.2210   -0.4320   20.0410 C   0  0  0  0  0  0  0  0  0  0  0  0
  -11.9830    2.0640   18.2820 N   0  0  0  0  0  0  0  0  0  0  0  0
   -9.8090    1.6160   19.3840 O   0  0  0  0  0  0  0  0  0  0  0  0
  -11.2090    1.5320   19.7180 S   0  0  0  0  0  0  0  0  0  0  0  0
  -11.7130   -0.1900   19.8460 C   0  0  0  0  0  0  0  0  0  0  0  0
  -11.7460    2.2880   20.8200 O   0  0  0  0  0  0  0  0  0  0  0  0
  -13.0830    2.9150   18.1540 C   0  0  0  0  0  0  0  0  0  0  0  0
  -14.1410    2.9340   19.0600 C   0  0  0  0  0  0  0  0  0  0  0  0
  -15.2230    3.7820   18.8790 C   0  0  0  0  0  0  0  0  0  0  0  0
  -15.2670    4.6470   17.7970 C   0  0  0  0  0  0  0  0  0  0  0  0
  -14.2230    4.6640   16.8900 C   0  0  0  0  0  0  0  0  0  0  0  0
  -13.1690    3.7940   17.0750 C   0  0  0  0  0  0  0  0  0  0  0  0
  -12.2070    3.7960   16.1860 F   0  0  0  0  0  0  0  0  0  0  0  0
  1  5  1  0
  2  4  1  0
  2  7  1  0
  3  4  2  0
  4  5  1  0
  4  6  2  0
  7  8  2  0
  7 12  1  0
  8  9  1  0
  9 10  2  0
 10 11  1  0
 11 12  2  0
 12 13  1  0
M  END
$$$$
