CypD-x0359-pandda-model
     RDKit          3D

 16 17  0  0  0  0  0  0  0  0999 V2000
  -10.9620    1.7470   19.9260 C   0  0  0  0  0  0  0  0  0  0  0  0
  -10.6680    0.7470   20.8070 N   0  0  0  0  0  0  0  0  0  0  0  0
  -10.0800    2.3340   19.3330 O   0  0  0  0  0  0  0  0  0  0  0  0
   -9.4670    0.4700   21.4760 C   0  0  0  0  0  0  0  0  0  0  0  0
  -12.2730    2.0900   19.7590 N   0  0  0  0  0  0  0  0  0  0  0  0
   -9.2040   -0.8280   21.8990 C   0  0  0  0  0  0  0  0  0  0  0  0
  -14.5590    4.6090   18.3200 N   0  0  0  0  0  0  0  0  0  0  0  0
   -8.0550   -1.1230   22.6120 C   0  0  0  0  0  0  0  0  0  0  0  0
   -7.1480   -0.1220   22.9140 C   0  0  0  0  0  0  0  0  0  0  0  0
   -7.3910    1.1730   22.4900 C   0  0  0  0  0  0  0  0  0  0  0  0
   -8.5400    1.4640   21.7770 C   0  0  0  0  0  0  0  0  0  0  0  0
  -12.8310    2.9720   18.8110 C   0  0  0  0  0  0  0  0  0  0  0  0
  -12.2780    3.1450   17.5510 C   0  0  0  0  0  0  0  0  0  0  0  0
  -12.8690    4.0610   16.7090 C   0  0  0  0  0  0  0  0  0  0  0  0
  -13.9850    4.7600   17.1350 C   0  0  0  0  0  0  0  0  0  0  0  0
  -13.9710    3.7230   19.1140 C   0  0  0  0  0  0  0  0  0  0  0  0
  1  2  1  0
  1  3  2  0
  1  5  1  0
  2  4  1  0
  4  6  2  0
  4 11  1  0
  5 12  1  0
  6  8  1  0
  7 15  2  0
  7 16  1  0
  8  9  2  0
  9 10  1  0
 10 11  2  0
 12 13  1  0
 12 16  2  0
 13 14  2  0
 14 15  1  0
M  END
$$$$
