CypD-x0392-pandda-model
     RDKit          3D

 17 18  0  0  0  0  0  0  0  0999 V2000
  -12.3911    0.3038   22.9976 C   0  0  0  0  0  0  0  0  0  0  0  0
  -12.2788   -0.8727   22.0770 N   0  0  0  0  0  0  0  0  0  0  0  0
  -10.0360    2.4584   19.4805 O   0  0  0  0  0  0  0  0  0  0  0  0
  -10.8429   -1.0749   21.6554 C   0  0  0  0  0  0  0  0  0  0  0  0
  -11.3453    0.7168   19.9314 N   0  0  0  0  0  0  0  0  0  0  0  0
  -10.2975    0.0987   20.8091 C   0  0  0  0  0  0  0  0  0  0  0  0
  -12.5098   -0.1682   19.6085 C   0  0  0  0  0  0  0  0  0  0  0  0
  -13.2008   -0.7074   20.8854 C   0  0  0  0  0  0  0  0  0  0  0  0
  -11.1450    1.9700   19.3935 C   0  0  0  0  0  0  0  0  0  0  0  0
  -12.2046    2.7460   18.7833 C   0  0  0  0  0  0  0  0  0  0  0  0
  -13.4094    2.9713   19.4609 C   0  0  0  0  0  0  0  0  0  0  0  0
  -14.4154    3.7558   18.9224 C   0  0  0  0  0  0  0  0  0  0  0  0
  -14.2115    4.3463   17.6910 C   0  0  0  0  0  0  0  0  0  0  0  0
  -13.0355    4.1166   16.9967 C   0  0  0  0  0  0  0  0  0  0  0  0
  -12.0344    3.3280   17.5254 C   0  0  0  0  0  0  0  0  0  0  0  0
  -15.1357    5.1354   17.2109 F   0  0  0  0  0  0  0  0  0  0  0  0
  -12.8515    4.6521   15.8213 F   0  0  0  0  0  0  0  0  0  0  0  0
  1  2  1  0
  2  4  1  0
  2  8  1  0
  3  9  2  0
  4  6  1  0
  5  6  1  0
  5  7  1  0
  5  9  1  0
  7  8  1  0
  9 10  1  0
 10 11  2  0
 10 15  1  0
 11 12  1  0
 12 13  2  0
 13 14  1  0
 13 16  1  0
 14 15  2  0
 14 17  1  0
M  CHG  1   2   1
M  END
$$$$
