CypD-x0602-pandda-model
     RDKit          3D

 13 14  0  0  1  0  0  0  0  0999 V2000
  -11.0421    0.3256   18.6926 C   0  0  0  0  0  0  0  0  0  0  0  0
  -11.3826    1.2203   17.5515 N   0  0  0  0  0  0  0  0  0  0  0  0
   -9.5132    1.8565   19.7665 O   0  0  0  0  0  0  0  0  0  0  0  0
  -12.6272    1.4942   17.1061 C   0  0  0  0  0  0  0  0  0  0  0  0
  -15.1884    2.1180   16.2697 N   0  0  0  0  0  0  0  0  0  0  0  0
  -13.6164    0.5097   16.9883 C   0  0  0  0  0  0  0  0  0  0  0  0
  -14.8797    0.8340   16.5671 C   0  0  0  0  0  0  0  0  0  0  0  0
  -14.2545    3.0986   16.3645 C   0  0  0  0  0  0  0  0  0  0  0  0
  -12.9769    2.8011   16.7604 C   0  0  0  0  0  0  0  0  0  0  0  0
  -10.6870    1.1186   19.9629 C   0  0  2  0  0  0  0  0  0  0  0  0
  -10.4263    0.2102   21.1693 C   0  0  0  0  0  0  0  0  0  0  0  0
   -9.0065    0.5385   21.5867 C   0  0  0  0  0  0  0  0  0  0  0  0
   -8.7870    1.8967   20.9521 C   0  0  0  0  0  0  0  0  0  0  0  0
  1  2  1  0
 10  1  1  6
  2  4  1  0
  3 10  1  0
  3 13  1  0
  4  6  2  0
  4  9  1  0
  5  7  2  0
  5  8  1  0
  6  7  1  0
  8  9  2  0
 10 11  1  0
 11 12  1  0
 12 13  1  0
M  CHG  1   5   1
M  END
$$$$
