CypD-x0435-pandda-model
     RDKit          3D

 15 16  0  0  1  0  0  0  0  0999 V2000
  -13.9490    1.7290   23.5830 C   0  0  0  0  0  0  0  0  0  0  0  0
  -11.2540    1.9440   20.8230 N   0  0  0  0  0  0  0  0  0  0  0  0
  -11.6240    1.4020   23.5780 O   0  0  0  0  0  0  0  0  0  0  0  0
  -12.7450    1.3010   22.7490 C   0  0  2  0  0  0  0  0  0  0  0  0
  -12.6910    2.8090   17.9470 N   0  0  0  0  0  0  0  0  0  0  0  0
   -9.9410    1.8400   19.0090 O   0  0  0  0  0  0  0  0  0  0  0  0
  -12.5730    2.1840   21.4940 C   0  0  0  0  0  0  0  0  0  0  0  0
  -13.7760    3.4410   18.4500 N   0  0  0  0  0  0  0  0  0  0  0  0
  -10.1050    1.9230   21.7820 C   0  0  0  0  0  0  0  0  0  0  0  0
  -10.4260    1.0020   22.9670 C   0  0  0  0  0  0  0  0  0  0  0  0
  -11.0560    1.8000   19.4730 C   0  0  0  0  0  0  0  0  0  0  0  0
  -12.1860    1.5440   18.4990 C   0  0  0  0  0  0  0  0  0  0  0  0
  -12.2220    3.4490   16.8590 C   0  0  0  0  0  0  0  0  0  0  0  0
  -13.0120    4.5220   16.6520 C   0  0  0  0  0  0  0  0  0  0  0  0
  -13.9540    4.4660   17.6690 C   0  0  0  0  0  0  0  0  0  0  0  0
  4  1  1  1
  2  7  1  0
  2  9  1  0
  2 11  1  0
  3  4  1  0
  3 10  1  0
  4  7  1  0
  5  8  1  0
  5 12  1  0
  5 13  1  0
  6 11  2  0
  8 15  2  0
  9 10  1  0
 11 12  1  0
 13 14  2  0
 14 15  1  0
M  END
$$$$
