CypD-x0523-pandda-model
     RDKit          3D

 15 15  0  0  0  0  0  0  0  0999 V2000
  -14.7760    2.1010   22.4300 C   0  0  0  0  0  0  0  0  0  0  0  0
  -13.5190    2.9810   20.5780 N   0  0  0  0  0  0  0  0  0  0  0  0
  -10.1750    2.5470   19.4050 O   0  0  0  0  0  0  0  0  0  0  0  0
  -14.6510    3.2650   21.4560 C   0  0  0  0  0  0  0  0  0  0  0  0
  -14.3880    4.0330   18.7210 N   0  0  0  0  0  0  0  0  0  0  0  0
  -14.3710    4.5700   22.1900 C   0  0  0  0  0  0  0  0  0  0  0  0
  -11.4850    0.7290   19.4160 N   0  0  0  0  0  0  0  0  0  0  0  0
  -13.3990    3.3030   19.2420 C   0  0  0  0  0  0  0  0  0  0  0  0
  -14.2580    4.3750   17.4520 C   0  0  0  0  0  0  0  0  0  0  0  0
  -13.1790    4.0430   16.6530 C   0  0  0  0  0  0  0  0  0  0  0  0
  -12.1630    3.2830   17.1850 C   0  0  0  0  0  0  0  0  0  0  0  0
  -12.2700    2.8840   18.5090 C   0  0  0  0  0  0  0  0  0  0  0  0
  -11.2570    2.0580   19.1170 C   0  0  0  0  0  0  0  0  0  0  0  0
  -10.6160   -0.0340   20.3560 C   0  0  0  0  0  0  0  0  0  0  0  0
  -12.7740    0.0550   19.0960 C   0  0  0  0  0  0  0  0  0  0  0  0
  1  4  1  0
  2  4  1  0
  2  8  1  0
  3 13  2  0
  4  6  1  0
  5  8  2  0
  5  9  1  0
  7 13  1  0
  7 14  1  0
  7 15  1  0
  8 12  1  0
  9 10  2  0
 10 11  1  0
 11 12  2  0
 12 13  1  0
M  END
$$$$
