CypD-x0631-pandda-model
     RDKit          3D

 18 19  0  0  0  0  0  0  0  0999 V2000
  -10.8844    2.3038   20.4252 C   0  0  0  0  0  0  0  0  0  0  0  0
  -10.6683    2.1745   21.7533 N   0  0  0  0  0  0  0  0  0  0  0  0
   -9.9508    2.5101   19.6738 O   0  0  0  0  0  0  0  0  0  0  0  0
   -9.4527    2.7068   22.4129 C   0  0  0  0  0  0  0  0  0  0  0  0
  -10.8502    2.7987   24.5095 N   0  0  0  0  0  0  0  0  0  0  0  0
  -11.1350    4.9557   23.8155 O   0  0  0  0  0  0  0  0  0  0  0  0
   -9.5069    2.4882   23.9316 C   0  0  0  0  0  0  0  0  0  0  0  0
  -12.1732    2.2510   19.9852 N   0  0  0  0  0  0  0  0  0  0  0  0
  -11.4790    1.8715   25.4648 C   0  0  0  0  0  0  0  0  0  0  0  0
  -12.8112    2.5496   25.8155 C   0  0  0  0  0  0  0  0  0  0  0  0
  -12.6676    4.0183   25.3815 C   0  0  0  0  0  0  0  0  0  0  0  0
  -11.4686    4.0039   24.4756 C   0  0  0  0  0  0  0  0  0  0  0  0
  -12.7545    2.8687   18.8688 C   0  0  0  0  0  0  0  0  0  0  0  0
  -14.0805    3.2797   18.9575 C   0  0  0  0  0  0  0  0  0  0  0  0
  -14.6853    3.9608   17.9161 C   0  0  0  0  0  0  0  0  0  0  0  0
  -13.9665    4.2476   16.7717 C   0  0  0  0  0  0  0  0  0  0  0  0
  -12.6591    3.8156   16.6509 C   0  0  0  0  0  0  0  0  0  0  0  0
  -12.0630    3.1220   17.6868 C   0  0  0  0  0  0  0  0  0  0  0  0
  1  2  1  0
  1  3  2  0
  1  8  1  0
  2  4  1  0
  4  7  1  0
  5  7  1  0
  5  9  1  0
  5 12  1  0
  6 12  2  0
  8 13  1  0
  9 10  1  0
 10 11  1  0
 11 12  1  0
 13 14  2  0
 13 18  1  0
 14 15  1  0
 15 16  2  0
 16 17  1  0
 17 18  2  0
M  END
$$$$
