CypD-x0613-pandda-model
     RDKit          3D

 15 16  0  0  1  0  0  0  0  0999 V2000
   -8.8830   -0.9740   21.3900 C   0  0  0  0  0  0  0  0  0  0  0  0
   -9.9770   -0.2090   20.7400 N   0  0  0  0  0  0  0  0  0  0  0  0
  -11.2770    2.1170   18.5810 O   0  0  0  0  0  0  0  0  0  0  0  0
  -11.3230   -0.7970   20.6240 C   0  0  0  0  0  0  0  0  0  0  0  0
   -8.9430    1.7810   20.3280 O   0  0  0  0  0  0  0  0  0  0  0  0
  -12.1530    0.2690   19.8900 C   0  0  0  0  0  0  0  0  0  0  0  0
  -11.3040    1.5530   19.8840 C   0  0  1  0  0  0  0  0  0  0  0  0
  -12.2770    2.9070   18.1150 C   0  0  0  0  0  0  0  0  0  0  0  0
  -12.1010    3.4460   16.8480 C   0  0  0  0  0  0  0  0  0  0  0  0
  -13.0310    4.3130   16.3000 C   0  0  0  0  0  0  0  0  0  0  0  0
  -14.1650    4.6470   17.0190 C   0  0  0  0  0  0  0  0  0  0  0  0
  -14.3440    4.0810   18.2670 C   0  0  0  0  0  0  0  0  0  0  0  0
  -13.4310    3.2120   18.8310 C   0  0  0  0  0  0  0  0  0  0  0  0
   -9.9300    1.0780   20.3210 C   0  0  0  0  0  0  0  0  0  0  0  0
  -15.4170    4.3860   18.9450 F   0  0  0  0  0  0  0  0  0  0  0  0
  1  2  1  0
  2  4  1  0
  2 14  1  0
  7  3  1  6
  3  8  1  0
  4  6  1  0
  5 14  2  0
  6  7  1  0
  7 14  1  0
  8  9  2  0
  8 13  1  0
  9 10  1  0
 10 11  2  0
 11 12  1  0
 12 13  2  0
 12 15  1  0
M  END
$$$$
