CypD-x0772-pandda-model
     RDKit          3D

 13 13  0  0  0  0  0  0  0  0999 V2000
   -9.1495    2.8111   23.6120 C   0  0  0  0  0  0  0  0  0  0  0  0
  -10.9270    0.8239   19.8090 N   0  0  0  0  0  0  0  0  0  0  0  0
   -9.8441    1.7922   21.5836 O   0  0  0  0  0  0  0  0  0  0  0  0
   -8.7287    1.9444   22.4298 C   0  0  0  0  0  0  0  0  0  0  0  0
   -8.8368    0.2657   20.3365 O   0  0  0  0  0  0  0  0  0  0  0  0
   -9.8221    0.9328   20.5703 C   0  0  0  0  0  0  0  0  0  0  0  0
  -12.1869    1.5786   19.9656 C   0  0  0  0  0  0  0  0  0  0  0  0
  -12.4617    2.4995   18.7795 C   0  0  0  0  0  0  0  0  0  0  0  0
  -11.7119    2.4775   17.6088 C   0  0  0  0  0  0  0  0  0  0  0  0
  -12.0039    3.3378   16.5674 C   0  0  0  0  0  0  0  0  0  0  0  0
  -13.0487    4.2343   16.6774 C   0  0  0  0  0  0  0  0  0  0  0  0
  -13.8058    4.2651   17.8341 C   0  0  0  0  0  0  0  0  0  0  0  0
  -13.5120    3.4022   18.8766 C   0  0  0  0  0  0  0  0  0  0  0  0
  1  4  1  0
  2  6  1  0
  2  7  1  0
  3  4  1  0
  3  6  1  0
  5  6  2  0
  7  8  1  0
  8  9  2  0
  8 13  1  0
  9 10  1  0
 10 11  2  0
 11 12  1  0
 12 13  2  0
M  END
$$$$
