CypD-x0502-pandda-model
     RDKit          3D

 18 19  0  0  0  0  0  0  0  0999 V2000
   -7.6460   -2.6600   22.9640 C   0  0  0  0  0  0  0  0  0  0  0  0
  -11.2710    0.5730   19.9290 N   0  0  0  0  0  0  0  0  0  0  0  0
  -10.0760    2.3610   19.2890 O   0  0  0  0  0  0  0  0  0  0  0  0
   -8.5960   -1.7830   22.1590 C   0  0  0  0  0  0  0  0  0  0  0  0
   -7.4900    0.1730   22.8800 O   0  0  0  0  0  0  0  0  0  0  0  0
   -9.6250   -2.3560   21.4310 C   0  0  0  0  0  0  0  0  0  0  0  0
  -10.4940   -1.5620   20.7030 C   0  0  0  0  0  0  0  0  0  0  0  0
  -10.3500   -0.1800   20.6740 C   0  0  0  0  0  0  0  0  0  0  0  0
  -11.1500    1.7970   19.3150 C   0  0  0  0  0  0  0  0  0  0  0  0
  -12.3010    2.4080   18.6830 C   0  0  0  0  0  0  0  0  0  0  0  0
  -12.1970    3.0240   17.4310 C   0  0  0  0  0  0  0  0  0  0  0  0
  -13.2860    3.6160   16.8110 C   0  0  0  0  0  0  0  0  0  0  0  0
  -14.5210    3.6060   17.4350 C   0  0  0  0  0  0  0  0  0  0  0  0
  -14.6220    3.0100   18.6760 C   0  0  0  0  0  0  0  0  0  0  0  0
  -13.5470    2.4200   19.3090 C   0  0  0  0  0  0  0  0  0  0  0  0
   -9.3200    0.3950   21.4110 C   0  0  0  0  0  0  0  0  0  0  0  0
   -8.4610   -0.4000   22.1500 C   0  0  0  0  0  0  0  0  0  0  0  0
  -15.7790    3.0090   19.2800 F   0  0  0  0  0  0  0  0  0  0  0  0
  1  4  1  0
  2  8  1  0
  2  9  1  0
  3  9  2  0
  4  6  2  0
  4 17  1  0
  5 17  1  0
  6  7  1  0
  7  8  2  0
  8 16  1  0
  9 10  1  0
 10 11  2  0
 10 15  1  0
 11 12  1  0
 12 13  2  0
 13 14  1  0
 14 15  2  0
 14 18  1  0
 16 17  2  0
M  END
$$$$
