CypD-x0138-pandda-model
     RDKit          3D

 17 18  0  0  0  0  0  0  0  0999 V2000
  -11.0581   -0.8271   23.9205 C   0  0  0  0  0  0  0  0  0  0  0  0
  -11.1095   -0.2257   22.5531 N   0  0  0  0  0  0  0  0  0  0  0  0
  -10.5849    2.8026   19.3521 O   0  0  0  0  0  0  0  0  0  0  0  0
  -11.6617   -1.1772   21.5275 C   0  0  0  0  0  0  0  0  0  0  0  0
  -10.9744    0.6734   19.9399 N   0  0  0  0  0  0  0  0  0  0  0  0
  -11.9417   -0.4500   20.1924 C   0  0  0  0  0  0  0  0  0  0  0  0
  -12.5113    1.9009   18.6338 N   0  0  0  0  0  0  0  0  0  0  0  0
   -9.6380    0.5225   20.6024 C   0  0  0  0  0  0  0  0  0  0  0  0
   -9.7709    0.3324   22.1312 C   0  0  0  0  0  0  0  0  0  0  0  0
  -11.3201    1.8336   19.2925 C   0  0  0  0  0  0  0  0  0  0  0  0
  -13.2035    3.0212   18.1844 C   0  0  0  0  0  0  0  0  0  0  0  0
  -12.6322    3.9209   17.2881 C   0  0  0  0  0  0  0  0  0  0  0  0
  -13.3527    5.0174   16.8469 C   0  0  0  0  0  0  0  0  0  0  0  0
  -14.6364    5.1963   17.3240 C   0  0  0  0  0  0  0  0  0  0  0  0
  -15.2370    4.3153   18.2013 C   0  0  0  0  0  0  0  0  0  0  0  0
  -14.5079    3.2206   18.6254 C   0  0  0  0  0  0  0  0  0  0  0  0
  -15.3166    6.2367   16.9330 F   0  0  0  0  0  0  0  0  0  0  0  0
  1  2  1  0
  2  4  1  0
  2  9  1  0
  3 10  2  0
  4  6  1  0
  5  6  1  0
  5  8  1  0
  5 10  1  0
  7 10  1  0
  7 11  1  0
  8  9  1  0
 11 12  2  0
 11 16  1  0
 12 13  1  0
 13 14  2  0
 14 15  1  0
 14 17  1  0
 15 16  2  0
M  CHG  1   2   1
M  END
$$$$
