CypD-x0531-pandda-model
     RDKit          3D

 14 15  0  0  0  0  0  0  0  0999 V2000
  -10.9712    1.3167   19.1479 C   0  0  0  0  0  0  0  0  0  0  0  0
  -11.3109    2.8964   17.2170 N   0  0  0  0  0  0  0  0  0  0  0  0
  -11.7787    2.3178   18.3406 C   0  0  0  0  0  0  0  0  0  0  0  0
  -12.2099    3.7464   16.6925 N   0  0  0  0  0  0  0  0  0  0  0  0
  -13.2345    3.6690   17.4779 C   0  0  0  0  0  0  0  0  0  0  0  0
  -14.0568    4.6875   20.5397 N   0  0  0  0  0  0  0  0  0  0  0  0
  -14.5044    4.4374   17.1961 C   0  0  0  0  0  0  0  0  0  0  0  0
  -13.0363    2.7905   18.5513 C   0  0  0  0  0  0  0  0  0  0  0  0
  -13.9635    2.4351   19.6067 C   0  0  0  0  0  0  0  0  0  0  0  0
  -14.4020    1.1176   19.6949 C   0  0  0  0  0  0  0  0  0  0  0  0
  -15.2540    0.7025   20.7015 C   0  0  0  0  0  0  0  0  0  0  0  0
  -15.6852    1.6089   21.6535 C   0  0  0  0  0  0  0  0  0  0  0  0
  -15.2716    2.9250   21.5813 C   0  0  0  0  0  0  0  0  0  0  0  0
  -14.4265    3.3527   20.5657 C   0  0  0  0  0  0  0  0  0  0  0  0
  1  3  1  0
  2  3  1  0
  2  4  1  0
  3  8  2  0
  4  5  2  0
  5  7  1  0
  5  8  1  0
  6 14  1  0
  8  9  1  0
  9 10  2  0
  9 14  1  0
 10 11  1  0
 11 12  2  0
 12 13  1  0
 13 14  2  0
M  END
$$$$
