CypD-x0602-pandda-model
     RDKit          3D

 13 14  0  0  1  0  0  0  0  0999 V2000
  -11.3398    0.8454   19.0204 C   0  0  0  0  0  0  0  0  0  0  0  0
  -10.8954    2.0419   18.2424 N   0  0  0  0  0  0  0  0  0  0  0  0
  -11.2808   -0.2288   21.1578 O   0  0  0  0  0  0  0  0  0  0  0  0
  -11.8412    2.9970   17.9206 C   0  0  0  0  0  0  0  0  0  0  0  0
  -13.6546    5.0494   17.2365 N   0  0  0  0  0  0  0  0  0  0  0  0
  -12.7631    3.4954   18.8246 C   0  0  0  0  0  0  0  0  0  0  0  0
  -13.6282    4.4991   18.4398 C   0  0  0  0  0  0  0  0  0  0  0  0
  -12.8167    4.5189   16.3594 C   0  0  0  0  0  0  0  0  0  0  0  0
  -11.9128    3.5179   16.6448 C   0  0  0  0  0  0  0  0  0  0  0  0
  -10.8819    0.9189   20.4845 C   0  0  1  0  0  0  0  0  0  0  0  0
   -9.3760    0.9587   20.6877 C   0  0  0  0  0  0  0  0  0  0  0  0
   -9.2137    0.3783   22.0802 C   0  0  0  0  0  0  0  0  0  0  0  0
  -10.4921   -0.4317   22.2891 C   0  0  0  0  0  0  0  0  0  0  0  0
  1  2  1  0
 10  1  1  6
  2  4  1  0
  3 10  1  0
  3 13  1  0
  4  6  2  0
  4  9  1  0
  5  7  2  0
  5  8  1  0
  6  7  1  0
  8  9  2  0
 10 11  1  0
 11 12  1  0
 12 13  1  0
M  END
$$$$
