CypD-x0166-pandda-model
     RDKit          3D

 14 15  0  0  0  0  0  0  0  0999 V2000
  -14.7894    2.2295   17.2330 C   0  0  0  0  0  0  0  0  0  0  0  0
  -11.4246    2.1277   20.9478 N   0  0  0  0  0  0  0  0  0  0  0  0
   -9.5060    1.8959   19.7713 O   0  0  0  0  0  0  0  0  0  0  0  0
  -13.4890    3.0367   17.3237 C   0  0  0  0  0  0  0  0  0  0  0  0
  -11.0803    1.9480   22.1816 N   0  0  0  0  0  0  0  0  0  0  0  0
  -13.7783    4.5403   17.2579 C   0  0  0  0  0  0  0  0  0  0  0  0
  -13.2357    2.5366   22.1112 N   0  0  0  0  0  0  0  0  0  0  0  0
  -12.7122    2.6979   18.5979 C   0  0  0  0  0  0  0  0  0  0  0  0
  -13.3756    2.8082   19.7884 N   0  0  0  0  0  0  0  0  0  0  0  0
  -11.4159    2.3162   18.5539 C   0  0  0  0  0  0  0  0  0  0  0  0
  -10.7089    2.0560   19.7590 C   0  0  0  0  0  0  0  0  0  0  0  0
  -12.2317    2.1968   22.8288 C   0  0  0  0  0  0  0  0  0  0  0  0
  -12.3033    2.0880   24.3335 C   0  0  0  0  0  0  0  0  0  0  0  0
  -12.7346    2.4870   20.8620 C   0  0  0  0  0  0  0  0  0  0  0  0
  1  4  1  0
  2  5  2  0
  2 11  1  0
  2 14  1  0
  3 11  2  0
  4  6  1  0
  4  8  1  0
  5 12  1  0
  7 12  2  0
  7 14  1  0
  8  9  1  0
  8 10  2  0
  9 14  2  0
 10 11  1  0
 12 13  1  0
M  CHG  1   2   1
M  END
$$$$
