CypD-x0416-pandda-model
     RDKit          3D

 13 13  0  0  0  0  0  0  0  0999 V2000
  -10.0140    1.4810   22.1950 C   0  0  0  0  0  0  0  0  0  0  0  0
  -12.4060    2.0680   19.7060 N   0  0  0  0  0  0  0  0  0  0  0  0
  -10.1900    2.2230   19.2690 O   0  0  0  0  0  0  0  0  0  0  0  0
  -10.7450    0.7870   21.0350 C   0  0  0  0  0  0  0  0  0  0  0  0
  -15.1590    3.8030   21.3480 N   0  0  0  0  0  0  0  0  0  0  0  0
  -11.0910    1.7530   19.9170 C   0  0  0  0  0  0  0  0  0  0  0  0
  -12.9700    2.9090   18.7250 C   0  0  0  0  0  0  0  0  0  0  0  0
  -12.3980    2.9950   17.4560 C   0  0  0  0  0  0  0  0  0  0  0  0
  -12.9260    3.8240   16.4880 C   0  0  0  0  0  0  0  0  0  0  0  0
  -14.0540    4.5700   16.7630 C   0  0  0  0  0  0  0  0  0  0  0  0
  -14.6460    4.4870   18.0070 C   0  0  0  0  0  0  0  0  0  0  0  0
  -14.1080    3.6810   19.0020 C   0  0  0  0  0  0  0  0  0  0  0  0
  -14.7060    3.7050   20.3040 C   0  0  0  0  0  0  0  0  0  0  0  0
  1  4  1  0
  2  6  1  0
  2  7  1  0
  3  6  2  0
  4  6  1  0
  5 13  3  0
  7  8  2  0
  7 12  1  0
  8  9  1  0
  9 10  2  0
 10 11  1  0
 11 12  2  0
 12 13  1  0
M  END
$$$$
