CypD-x0392-pandda-model
     RDKit          3D

 17 18  0  0  0  0  0  0  0  0999 V2000
  -12.5449   -2.4030   21.6494 C   0  0  0  0  0  0  0  0  0  0  0  0
  -12.6046   -1.0026   22.1714 N   0  0  0  0  0  0  0  0  0  0  0  0
  -10.1561    2.4549   19.7346 O   0  0  0  0  0  0  0  0  0  0  0  0
  -11.2416   -0.3626   22.2456 C   0  0  0  0  0  0  0  0  0  0  0  0
  -11.6244    0.7961   20.0479 N   0  0  0  0  0  0  0  0  0  0  0  0
  -10.6641   -0.0277   20.8540 C   0  0  0  0  0  0  0  0  0  0  0  0
  -13.0018    0.2212   19.9690 C   0  0  0  0  0  0  0  0  0  0  0  0
  -13.5485   -0.1453   21.3669 C   0  0  0  0  0  0  0  0  0  0  0  0
  -11.2805    2.0339   19.5387 C   0  0  0  0  0  0  0  0  0  0  0  0
  -12.2183    2.8938   18.8470 C   0  0  0  0  0  0  0  0  0  0  0  0
  -13.2320    3.5509   19.5567 C   0  0  0  0  0  0  0  0  0  0  0  0
  -14.0872    4.4511   18.9438 C   0  0  0  0  0  0  0  0  0  0  0  0
  -13.9272    4.7018   17.5949 C   0  0  0  0  0  0  0  0  0  0  0  0
  -12.9660    4.0251   16.8651 C   0  0  0  0  0  0  0  0  0  0  0  0
  -12.1103    3.1305   17.4758 C   0  0  0  0  0  0  0  0  0  0  0  0
  -14.6856    5.6004   17.0318 F   0  0  0  0  0  0  0  0  0  0  0  0
  -12.8562    4.2290   15.5799 F   0  0  0  0  0  0  0  0  0  0  0  0
  1  2  1  0
  2  4  1  0
  2  8  1  0
  3  9  2  0
  4  6  1  0
  5  6  1  0
  5  7  1  0
  5  9  1  0
  7  8  1  0
  9 10  1  0
 10 11  2  0
 10 15  1  0
 11 12  1  0
 12 13  2  0
 13 14  1  0
 13 16  1  0
 14 15  2  0
 14 17  1  0
M  CHG  1   2   1
M  END
$$$$
