CypD-x0522-pandda-model
     RDKit          3D

 12 12  0  0  0  0  0  0  0  0999 V2000
  -14.9410    5.0430   17.3930 C   0  0  0  0  0  0  0  0  0  0  0  0
  -13.9130    4.2660   17.4200 N   0  0  0  0  0  0  0  0  0  0  0  0
  -13.8700    4.2520   19.6820 O   0  0  0  0  0  0  0  0  0  0  0  0
  -13.3240    3.7650   16.1560 C   0  0  0  0  0  0  0  0  0  0  0  0
  -11.4830    2.7140   19.8620 N   0  0  0  0  0  0  0  0  0  0  0  0
  -13.2920    3.8450   18.6260 C   0  0  0  0  0  0  0  0  0  0  0  0
  -10.9270    2.2610   21.9220 N   0  0  0  0  0  0  0  0  0  0  0  0
  -12.1560    3.0980   18.6930 C   0  0  0  0  0  0  0  0  0  0  0  0
   -8.6670    1.9530   21.5140 N   0  0  0  0  0  0  0  0  0  0  0  0
  -11.8910    2.5850   21.1320 C   0  0  0  0  0  0  0  0  0  0  0  0
  -10.1700    2.4630   19.8300 N   0  0  0  0  0  0  0  0  0  0  0  0
   -9.9190    2.2100   21.0630 C   0  0  0  0  0  0  0  0  0  0  0  0
  1  2  2  0
  2  4  1  0
  2  6  1  0
  3  6  1  0
  5  8  1  0
  5 10  1  0
  5 11  1  0
  6  8  2  0
  7 10  2  0
  7 12  1  0
  9 12  1  0
 11 12  2  0
M  CHG  2   2   1   3  -1
M  END
$$$$
