CypD-x0893-pandda-model
     RDKit          3D

 11 12  0  0  0  0  0  0  0  0999 V2000
  -12.1830    1.3840   22.1183 C   0  0  0  0  0  0  0  0  0  0  0  0
  -14.2387    4.2516   17.0059 N   0  0  0  0  0  0  0  0  0  0  0  0
  -13.4267    1.9777   21.8056 O   0  0  0  0  0  0  0  0  0  0  0  0
  -13.6462    2.5474   20.5972 C   0  0  0  0  0  0  0  0  0  0  0  0
  -12.6619    2.6305   19.7250 N   0  0  0  0  0  0  0  0  0  0  0  0
  -14.9521    3.0157   20.3833 C   0  0  0  0  0  0  0  0  0  0  0  0
  -15.2844    3.6199   19.2024 C   0  0  0  0  0  0  0  0  0  0  0  0
  -14.2574    3.7243   18.2722 C   0  0  0  0  0  0  0  0  0  0  0  0
  -12.9805    4.0915   16.5029 C   0  0  0  0  0  0  0  0  0  0  0  0
  -12.2015    3.4661   17.4227 C   0  0  0  0  0  0  0  0  0  0  0  0
  -12.9941    3.2229   18.5624 C   0  0  0  0  0  0  0  0  0  0  0  0
  1  3  1  0
  2  8  1  0
  2  9  1  0
  3  4  1  0
  4  5  1  0
  4  6  2  0
  5 11  2  0
  6  7  1  0
  7  8  2  0
  8 11  1  0
  9 10  2  0
 10 11  1  0
M  END
$$$$
