CypD-x0548-pandda-model
     RDKit          3D

 13 14  0  0  0  0  0  0  0  0999 V2000
   -9.9743   -0.5514   21.1227 C   0  0  0  0  0  0  0  0  0  0  0  0
   -9.6775   -0.1836   22.4990 N   0  0  0  0  0  0  0  0  0  0  0  0
   -9.6745    1.6906   20.2029 O   0  0  0  0  0  0  0  0  0  0  0  0
  -10.4682    0.6697   20.3757 C   0  0  0  0  0  0  0  0  0  0  0  0
  -10.2495    2.6437   19.5375 N   0  0  0  0  0  0  0  0  0  0  0  0
  -11.6377    0.9574   19.7901 C   0  0  0  0  0  0  0  0  0  0  0  0
  -11.4480    2.2365   19.2620 C   0  0  0  0  0  0  0  0  0  0  0  0
  -12.4204    3.0126   18.5308 C   0  0  0  0  0  0  0  0  0  0  0  0
  -13.7061    3.2210   19.0247 C   0  0  0  0  0  0  0  0  0  0  0  0
  -14.6141    4.0048   18.3370 C   0  0  0  0  0  0  0  0  0  0  0  0
  -14.2502    4.5919   17.1392 C   0  0  0  0  0  0  0  0  0  0  0  0
  -12.9878    4.3798   16.6205 C   0  0  0  0  0  0  0  0  0  0  0  0
  -12.0843    3.5938   17.3113 C   0  0  0  0  0  0  0  0  0  0  0  0
  1  2  1  0
  1  4  1  0
  3  4  1  0
  3  5  1  0
  4  6  2  0
  5  7  2  0
  6  7  1  0
  7  8  1  0
  8  9  2  0
  8 13  1  0
  9 10  1  0
 10 11  2  0
 11 12  1  0
 12 13  2  0
M  END
$$$$
