CypD-x0354-pandda-model
     RDKit          3D

 14 15  0  0  0  0  0  0  0  0999 V2000
  -11.5432    1.9256   18.3959 C   0  0  0  0  0  0  0  0  0  0  0  0
  -14.3691    1.9850   19.1928 N   0  0  0  0  0  0  0  0  0  0  0  0
  -10.6159    2.6176   19.1640 O   0  0  0  0  0  0  0  0  0  0  0  0
  -12.5565    2.9296   17.8745 C   0  0  0  0  0  0  0  0  0  0  0  0
  -16.4428    0.8705   20.8105 O   0  0  0  0  0  0  0  0  0  0  0  0
  -12.1308    3.8566   16.9397 C   0  0  0  0  0  0  0  0  0  0  0  0
  -12.9956    4.8175   16.4482 C   0  0  0  0  0  0  0  0  0  0  0  0
  -14.3041    4.8528   16.8889 C   0  0  0  0  0  0  0  0  0  0  0  0
  -14.7427    3.9163   17.8010 C   0  0  0  0  0  0  0  0  0  0  0  0
  -13.8852    2.9397   18.3018 C   0  0  0  0  0  0  0  0  0  0  0  0
  -14.6934    2.5187   20.5515 C   0  0  0  0  0  0  0  0  0  0  0  0
  -15.3416    1.4533   21.4536 C   0  0  0  0  0  0  0  0  0  0  0  0
  -16.0696    0.1725   19.6506 C   0  0  0  0  0  0  0  0  0  0  0  0
  -15.4582    1.1271   18.6113 C   0  0  0  0  0  0  0  0  0  0  0  0
  1  3  1  0
  1  4  1  0
  2 10  1  0
  2 11  1  0
  2 14  1  0
  4  6  2  0
  4 10  1  0
  5 12  1  0
  5 13  1  0
  6  7  1  0
  7  8  2  0
  8  9  1  0
  9 10  2  0
 11 12  1  0
 13 14  1  0
M  END
$$$$
