CypD-x0386-pandda-model
     RDKit          3D

 15 15  0  0  0  0  0  0  0  0999 V2000
  -11.2330    0.4050   20.8050 C   0  0  0  0  0  0  0  0  0  0  0  0
  -12.0320    1.0530   19.7320 N   0  0  0  0  0  0  0  0  0  0  0  0
  -15.5810    1.6660   20.0720 O   0  0  0  0  0  0  0  0  0  0  0  0
  -13.4780    0.5810   19.6780 C   0  0  0  0  0  0  0  0  0  0  0  0
  -14.2140    1.6640   21.7200 O   0  0  0  0  0  0  0  0  0  0  0  0
  -14.4950    1.3200   20.5620 C   0  0  0  0  0  0  0  0  0  0  0  0
  -10.3290    2.2740   18.9210 O   0  0  0  0  0  0  0  0  0  0  0  0
  -11.5350    2.1090   18.9940 C   0  0  0  0  0  0  0  0  0  0  0  0
  -12.4090    3.0570   18.3310 C   0  0  0  0  0  0  0  0  0  0  0  0
  -13.3910    3.7300   19.0580 C   0  0  0  0  0  0  0  0  0  0  0  0
  -14.2490    4.6270   18.4660 C   0  0  0  0  0  0  0  0  0  0  0  0
  -14.0810    4.9070   17.1300 C   0  0  0  0  0  0  0  0  0  0  0  0
  -13.1150    4.2860   16.3630 C   0  0  0  0  0  0  0  0  0  0  0  0
  -12.2870    3.3560   16.9710 C   0  0  0  0  0  0  0  0  0  0  0  0
  -14.8530    5.8020   16.5920 F   0  0  0  0  0  0  0  0  0  0  0  0
  1  2  1  0
  2  4  1  0
  2  8  1  0
  3  6  1  0
  4  6  1  0
  5  6  2  0
  7  8  2  0
  8  9  1  0
  9 10  2  0
  9 14  1  0
 10 11  1  0
 11 12  2  0
 12 13  1  0
 12 15  1  0
 13 14  2  0
M  CHG  1   3  -1
M  END
$$$$
