CypD-x0556-pandda-model
     RDKit          3D

 19 21  0  0  0  0  0  0  0  0999 V2000
  -11.4480    2.0360   18.8630 C   0  0  0  0  0  0  0  0  0  0  0  0
  -11.7670    0.7560   19.2470 N   0  0  0  0  0  0  0  0  0  0  0  0
  -10.3330    2.4800   19.0580 O   0  0  0  0  0  0  0  0  0  0  0  0
  -11.0330   -0.2040   19.9580 C   0  0  0  0  0  0  0  0  0  0  0  0
   -8.9320   -3.2940   21.8430 N   0  0  0  0  0  0  0  0  0  0  0  0
  -11.4350   -1.5460   19.8540 C   0  0  0  0  0  0  0  0  0  0  0  0
  -10.7380   -2.5430   20.4830 C   0  0  0  0  0  0  0  0  0  0  0  0
   -9.6050   -2.2670   21.2640 C   0  0  0  0  0  0  0  0  0  0  0  0
   -7.9080   -2.9920   22.5850 C   0  0  0  0  0  0  0  0  0  0  0  0
   -7.4590   -1.6850   22.8160 C   0  0  0  0  0  0  0  0  0  0  0  0
   -8.1120   -0.6420   22.2350 C   0  0  0  0  0  0  0  0  0  0  0  0
   -9.2180   -0.9180   21.4150 C   0  0  0  0  0  0  0  0  0  0  0  0
   -9.9440    0.0860   20.7500 C   0  0  0  0  0  0  0  0  0  0  0  0
  -12.4420    2.8700   18.2200 C   0  0  0  0  0  0  0  0  0  0  0  0
  -12.1280    3.5950   17.0730 C   0  0  0  0  0  0  0  0  0  0  0  0
  -13.0420    4.4500   16.4850 C   0  0  0  0  0  0  0  0  0  0  0  0
  -14.3010    4.5940   17.0360 C   0  0  0  0  0  0  0  0  0  0  0  0
  -14.6500    3.8660   18.1600 C   0  0  0  0  0  0  0  0  0  0  0  0
  -13.7290    3.0130   18.7410 C   0  0  0  0  0  0  0  0  0  0  0  0
  1  2  1  0
  1  3  2  0
  1 14  1  0
  2  4  1  0
  4  6  1  0
  4 13  2  0
  5  8  2  0
  5  9  1  0
  6  7  2  0
  7  8  1  0
  8 12  1  0
  9 10  2  0
 10 11  1  0
 11 12  2  0
 12 13  1  0
 14 15  2  0
 14 19  1  0
 15 16  1  0
 16 17  2  0
 17 18  1  0
 18 19  2  0
M  END
$$$$
