CypD-x0099-pandda-model
     RDKit          3D

 15 16  0  0  0  0  0  0  0  0999 V2000
  -14.7830    4.3700   17.3780 C   0  0  0  0  0  0  0  0  0  0  0  0
  -13.4330    3.7750   17.1670 N   0  0  0  0  0  0  0  0  0  0  0  0
  -13.5390    2.6270   19.0960 O   0  0  0  0  0  0  0  0  0  0  0  0
  -12.8330    4.1100   15.8480 C   0  0  0  0  0  0  0  0  0  0  0  0
  -10.9940    1.6820   19.0770 N   0  0  0  0  0  0  0  0  0  0  0  0
  -12.9250    2.8820   18.0850 C   0  0  0  0  0  0  0  0  0  0  0  0
   -9.9710    2.3450   19.6640 N   0  0  0  0  0  0  0  0  0  0  0  0
  -11.6050    2.1750   17.8330 C   0  0  0  0  0  0  0  0  0  0  0  0
   -9.5790    1.5840   20.6320 C   0  0  0  0  0  0  0  0  0  0  0  0
  -10.2950    0.3800   20.7010 C   0  0  0  0  0  0  0  0  0  0  0  0
  -10.2560   -0.7670   21.5040 C   0  0  0  0  0  0  0  0  0  0  0  0
  -11.1490   -1.7840   21.2650 C   0  0  0  0  0  0  0  0  0  0  0  0
  -12.0950   -1.6740   20.2360 C   0  0  0  0  0  0  0  0  0  0  0  0
  -12.1410   -0.5500   19.4470 C   0  0  0  0  0  0  0  0  0  0  0  0
  -11.2180    0.4760   19.6810 C   0  0  0  0  0  0  0  0  0  0  0  0
  1  2  1  0
  2  4  1  0
  2  6  1  0
  3  6  2  0
  5  7  1  0
  5  8  1  0
  5 15  1  0
  6  8  1  0
  7  9  2  0
  9 10  1  0
 10 11  1  0
 10 15  2  0
 11 12  2  0
 12 13  1  0
 13 14  2  0
 14 15  1  0
M  END
$$$$
