CypD-x0943-pandda-model
     RDKit          3D

 10 11  0  0  0  0  0  0  0  0999 V2000
  -12.1638    2.0300   21.0159 C   0  0  0  0  0  0  0  0  0  0  0  0
  -11.1296    2.7288   17.5357 N   0  0  0  0  0  0  0  0  0  0  0  0
  -11.9679    2.4488   19.5741 C   0  0  0  0  0  0  0  0  0  0  0  0
  -14.1064    3.6695   19.2002 N   0  0  0  0  0  0  0  0  0  0  0  0
  -10.9102    2.1832   18.7692 C   0  0  0  0  0  0  0  0  0  0  0  0
  -12.3499    3.3585   17.5589 C   0  0  0  0  0  0  0  0  0  0  0  0
  -13.0501    4.0563   16.5817 C   0  0  0  0  0  0  0  0  0  0  0  0
  -14.2843    4.5203   16.9547 C   0  0  0  0  0  0  0  0  0  0  0  0
  -14.7637    4.2897   18.2510 C   0  0  0  0  0  0  0  0  0  0  0  0
  -12.9036    3.1945   18.8264 C   0  0  0  0  0  0  0  0  0  0  0  0
  1  3  1  0
  2  5  1  0
  2  6  1  0
  3  5  2  0
  3 10  1  0
  4  9  1  0
  4 10  2  0
  6  7  2  0
  6 10  1  0
  7  8  1  0
  8  9  2  0
M  END
$$$$
