CypD-x0291-pandda-model
     RDKit          3D

 15 16  0  0  0  0  0  0  0  0999 V2000
  -13.7220    2.8950   20.3450 C   0  0  0  0  0  0  0  0  0  0  0  0
  -11.3940    2.0060   18.8230 N   0  0  0  0  0  0  0  0  0  0  0  0
  -10.3940   -1.9010   20.1860 O   0  0  0  0  0  0  0  0  0  0  0  0
  -13.4410    3.3460   18.9140 C   0  0  0  0  0  0  0  0  0  0  0  0
   -9.6270    1.5790   19.9480 N   0  0  0  0  0  0  0  0  0  0  0  0
   -9.0690   -0.8000   21.4320 O   0  0  0  0  0  0  0  0  0  0  0  0
  -14.2840    4.2690   18.3150 C   0  0  0  0  0  0  0  0  0  0  0  0
  -10.2430    2.4970   19.3050 N   0  0  0  0  0  0  0  0  0  0  0  0
  -14.0570    4.6980   17.0210 C   0  0  0  0  0  0  0  0  0  0  0  0
  -12.9900    4.1960   16.3050 C   0  0  0  0  0  0  0  0  0  0  0  0
  -12.1380    3.2820   16.8950 C   0  0  0  0  0  0  0  0  0  0  0  0
  -12.3420    2.8610   18.2050 C   0  0  0  0  0  0  0  0  0  0  0  0
  -11.4810    0.7240   19.1820 C   0  0  0  0  0  0  0  0  0  0  0  0
  -10.3680    0.4460   19.9020 C   0  0  0  0  0  0  0  0  0  0  0  0
   -9.9480   -0.7950   20.5420 C   0  0  0  0  0  0  0  0  0  0  0  0
  1  4  1  0
  2  8  1  0
  2 12  1  0
  2 13  1  0
  3 15  1  0
  4  7  2  0
  4 12  1  0
  5  8  2  0
  5 14  1  0
  6 15  2  0
  7  9  1  0
  9 10  2  0
 10 11  1  0
 11 12  2  0
 13 14  2  0
 14 15  1  0
M  CHG  1   3  -1
M  END
$$$$
