CypD-x0508-pandda-model
     RDKit          3D

 14 15  0  0  0  0  0  0  0  0999 V2000
  -10.2537   -0.2629   21.2958 C   0  0  0  0  0  0  0  0  0  0  0  0
  -11.2394    0.6534   20.6659 N   0  0  0  0  0  0  0  0  0  0  0  0
   -9.7801    2.0849   19.7760 O   0  0  0  0  0  0  0  0  0  0  0  0
  -10.9447    1.7702   19.9362 C   0  0  0  0  0  0  0  0  0  0  0  0
  -13.2066    3.8092   17.9378 N   0  0  0  0  0  0  0  0  0  0  0  0
  -11.9996    2.5564   19.3556 C   0  0  0  0  0  0  0  0  0  0  0  0
  -12.0191    3.1874   18.1406 C   0  0  0  0  0  0  0  0  0  0  0  0
  -13.6247    4.5405   16.7279 C   0  0  0  0  0  0  0  0  0  0  0  0
  -13.9871    3.5839   19.0452 C   0  0  0  0  0  0  0  0  0  0  0  0
  -15.2983    3.9741   19.3233 C   0  0  0  0  0  0  0  0  0  0  0  0
  -15.8658    3.6213   20.5249 C   0  0  0  0  0  0  0  0  0  0  0  0
  -15.1305    2.8908   21.4642 C   0  0  0  0  0  0  0  0  0  0  0  0
  -13.8409    2.4971   21.1875 C   0  0  0  0  0  0  0  0  0  0  0  0
  -13.2616    2.8233   19.9542 C   0  0  0  0  0  0  0  0  0  0  0  0
  1  2  1  0
  2  4  1  0
  3  4  2  0
  4  6  1  0
  5  7  1  0
  5  8  1  0
  5  9  1  0
  6  7  2  0
  6 14  1  0
  9 10  2  0
  9 14  1  0
 10 11  1  0
 11 12  2  0
 12 13  1  0
 13 14  2  0
M  END
$$$$
