CypD-x0886-pandda-model
     RDKit          3D

 13 14  0  0  0  0  0  0  0  0999 V2000
  -10.0110    1.0112   20.6228 C   0  0  0  0  0  0  0  0  0  0  0  0
  -12.2437    1.8828   20.1159 N   0  0  0  0  0  0  0  0  0  0  0  0
  -10.3898    2.7149   19.0760 O   0  0  0  0  0  0  0  0  0  0  0  0
  -10.9052    1.9533   19.8579 C   0  0  0  0  0  0  0  0  0  0  0  0
  -12.4537    3.6435   17.5491 N   0  0  0  0  0  0  0  0  0  0  0  0
  -13.3594    2.6287   19.6852 C   0  0  0  0  0  0  0  0  0  0  0  0
  -14.5108    2.5762   20.4500 C   0  0  0  0  0  0  0  0  0  0  0  0
  -15.6699    3.2725   20.0923 C   0  0  0  0  0  0  0  0  0  0  0  0
  -15.6920    4.0437   18.9578 C   0  0  0  0  0  0  0  0  0  0  0  0
  -14.5417    4.1307   18.1685 C   0  0  0  0  0  0  0  0  0  0  0  0
  -14.2404    4.8226   16.9773 C   0  0  0  0  0  0  0  0  0  0  0  0
  -12.9762    4.4999   16.6232 C   0  0  0  0  0  0  0  0  0  0  0  0
  -13.3992    3.4168   18.5190 C   0  0  0  0  0  0  0  0  0  0  0  0
  1  4  1  0
  2  4  1  0
  2  6  1  0
  3  4  2  0
  5 12  1  0
  5 13  1  0
  6  7  1  0
  6 13  2  0
  7  8  2  0
  8  9  1  0
  9 10  2  0
 10 11  1  0
 10 13  1  0
 11 12  2  0
M  END
$$$$
