CypD-x0502-pandda-model
     RDKit          3D

 18 19  0  0  0  0  0  0  0  0999 V2000
   -6.9117   -0.4803   23.7321 C   0  0  0  0  0  0  0  0  0  0  0  0
  -11.1927    1.2445   20.3380 N   0  0  0  0  0  0  0  0  0  0  0  0
  -10.1978    2.8226   19.1140 O   0  0  0  0  0  0  0  0  0  0  0  0
   -8.0403   -0.0057   22.8283 C   0  0  0  0  0  0  0  0  0  0  0  0
   -7.1884    2.2036   22.8365 O   0  0  0  0  0  0  0  0  0  0  0  0
   -9.0030   -0.8990   22.3854 C   0  0  0  0  0  0  0  0  0  0  0  0
  -10.0321   -0.4709   21.5656 C   0  0  0  0  0  0  0  0  0  0  0  0
  -10.1292    0.8586   21.1723 C   0  0  0  0  0  0  0  0  0  0  0  0
  -11.2212    2.2363   19.3876 C   0  0  0  0  0  0  0  0  0  0  0  0
  -12.4440    2.6164   18.7109 C   0  0  0  0  0  0  0  0  0  0  0  0
  -12.4065    3.1149   17.4028 C   0  0  0  0  0  0  0  0  0  0  0  0
  -13.5486    3.5458   16.7482 C   0  0  0  0  0  0  0  0  0  0  0  0
  -14.7713    3.4785   17.3918 C   0  0  0  0  0  0  0  0  0  0  0  0
  -14.8114    2.9787   18.6771 C   0  0  0  0  0  0  0  0  0  0  0  0
  -13.6841    2.5496   19.3441 C   0  0  0  0  0  0  0  0  0  0  0  0
   -9.1684    1.7540   21.6312 C   0  0  0  0  0  0  0  0  0  0  0  0
   -8.1289    1.3249   22.4378 C   0  0  0  0  0  0  0  0  0  0  0  0
  -15.9602    2.9188   19.2946 F   0  0  0  0  0  0  0  0  0  0  0  0
  1  4  1  0
  2  8  1  0
  2  9  1  0
  3  9  2  0
  4  6  2  0
  4 17  1  0
  5 17  1  0
  6  7  1  0
  7  8  2  0
  8 16  1  0
  9 10  1  0
 10 11  2  0
 10 15  1  0
 11 12  1  0
 12 13  2  0
 13 14  1  0
 14 15  2  0
 14 18  1  0
 16 17  2  0
M  END
$$$$
