CypD-x0714-pandda-model
     RDKit          3D

 13 13  0  0  0  0  0  0  0  0999 V2000
   -8.1850    1.8190   21.9027 C   0  0  0  0  0  0  0  0  0  0  0  0
  -11.7753    1.7214   19.3588 N   0  0  0  0  0  0  0  0  0  0  0  0
   -8.5047    0.8643   20.9303 O   0  0  0  0  0  0  0  0  0  0  0  0
   -9.8821    0.7387   20.6590 C   0  0  0  0  0  0  0  0  0  0  0  0
   -9.8097    2.8129   19.4805 O   0  0  0  0  0  0  0  0  0  0  0  0
  -10.4739    1.8465   19.7717 C   0  0  0  0  0  0  0  0  0  0  0  0
  -14.9451    5.6048   17.0428 O   0  0  0  0  0  0  0  0  0  0  0  0
  -12.5765    2.6782   18.7104 C   0  0  0  0  0  0  0  0  0  0  0  0
  -13.9318    2.7449   19.0181 C   0  0  0  0  0  0  0  0  0  0  0  0
  -14.7427    3.7125   18.4502 C   0  0  0  0  0  0  0  0  0  0  0  0
  -14.1932    4.6295   17.5718 C   0  0  0  0  0  0  0  0  0  0  0  0
  -12.8608    4.5525   17.2178 C   0  0  0  0  0  0  0  0  0  0  0  0
  -12.0601    3.5743   17.7757 C   0  0  0  0  0  0  0  0  0  0  0  0
  1  3  1  0
  2  6  1  0
  2  8  1  0
  3  4  1  0
  4  6  1  0
  5  6  2  0
  7 11  1  0
  8  9  2  0
  8 13  1  0
  9 10  1  0
 10 11  2  0
 11 12  1  0
 12 13  2  0
M  END
$$$$
