CypD-x0444-pandda-model
     RDKit          3D

 13 13  0  0  0  0  0  0  0  0999 V2000
  -11.9270    1.2180   23.2290 C   0  0  0  0  0  0  0  0  0  0  0  0
  -11.6650    1.9330   19.9190 N   0  0  0  0  0  0  0  0  0  0  0  0
  -11.4150    2.3510   22.5980 O   0  0  0  0  0  0  0  0  0  0  0  0
  -10.1970    2.1320   21.9160 C   0  0  0  0  0  0  0  0  0  0  0  0
   -9.4570    1.6240   19.7210 O   0  0  0  0  0  0  0  0  0  0  0  0
  -10.4100    1.8660   20.4240 C   0  0  0  0  0  0  0  0  0  0  0  0
  -12.0590    1.6820   18.5210 C   0  0  0  0  0  0  0  0  0  0  0  0
  -12.9000    2.8470   18.0280 C   0  0  0  0  0  0  0  0  0  0  0  0
  -12.4630    3.6070   16.9550 C   0  0  0  0  0  0  0  0  0  0  0  0
  -13.2150    4.6750   16.5040 C   0  0  0  0  0  0  0  0  0  0  0  0
  -14.4080    4.9970   17.1250 C   0  0  0  0  0  0  0  0  0  0  0  0
  -14.8590    4.2360   18.1890 C   0  0  0  0  0  0  0  0  0  0  0  0
  -14.1070    3.1640   18.6370 C   0  0  0  0  0  0  0  0  0  0  0  0
  1  3  1  0
  2  6  1  0
  2  7  1  0
  3  4  1  0
  4  6  1  0
  5  6  2  0
  7  8  1  0
  8  9  2  0
  8 13  1  0
  9 10  1  0
 10 11  2  0
 11 12  1  0
 12 13  2  0
M  END
$$$$
