CypD-x0354-pandda-model
     RDKit          3D

 14 15  0  0  0  0  0  0  0  0999 V2000
  -11.3320    1.8880   18.4270 C   0  0  0  0  0  0  0  0  0  0  0  0
  -13.7330    2.4260   19.9740 N   0  0  0  0  0  0  0  0  0  0  0  0
  -10.5020    2.4370   19.3880 O   0  0  0  0  0  0  0  0  0  0  0  0
  -12.3480    2.9490   18.0470 C   0  0  0  0  0  0  0  0  0  0  0  0
  -15.2890    1.6050   22.2320 O   0  0  0  0  0  0  0  0  0  0  0  0
  -12.1370    3.6870   16.8940 C   0  0  0  0  0  0  0  0  0  0  0  0
  -13.0200    4.6830   16.5210 C   0  0  0  0  0  0  0  0  0  0  0  0
  -14.1280    4.9450   17.3040 C   0  0  0  0  0  0  0  0  0  0  0  0
  -14.3530    4.2020   18.4480 C   0  0  0  0  0  0  0  0  0  0  0  0
  -13.4740    3.1920   18.8350 C   0  0  0  0  0  0  0  0  0  0  0  0
  -13.6760    3.1380   21.2920 C   0  0  0  0  0  0  0  0  0  0  0  0
  -14.0650    2.2340   22.4740 C   0  0  0  0  0  0  0  0  0  0  0  0
  -15.2320    0.7450   21.1310 C   0  0  0  0  0  0  0  0  0  0  0  0
  -14.9320    1.5340   19.8440 C   0  0  0  0  0  0  0  0  0  0  0  0
  1  3  1  0
  1  4  1  0
  2 10  1  0
  2 11  1  0
  2 14  1  0
  4  6  2  0
  4 10  1  0
  5 12  1  0
  5 13  1  0
  6  7  1  0
  7  8  2  0
  8  9  1  0
  9 10  2  0
 11 12  1  0
 13 14  1  0
M  END
$$$$
