CypD-x0257-pandda-model
     RDKit          3D

 13 13  0  0  0  0  0  0  0  0999 V2000
  -10.6029    0.1346   20.7119 C   0  0  0  0  0  0  0  0  0  0  0  0
  -11.4800    0.7535   19.6776 N   0  0  0  0  0  0  0  0  0  0  0  0
  -10.1795    2.5521   19.4025 O   0  0  0  0  0  0  0  0  0  0  0  0
  -12.5929   -0.1164   19.2134 C   0  0  0  0  0  0  0  0  0  0  0  0
  -11.2712    2.0424   19.2312 C   0  0  0  0  0  0  0  0  0  0  0  0
  -12.2841    2.8209   18.5543 C   0  0  0  0  0  0  0  0  0  0  0  0
  -12.0270    3.3628   17.2899 C   0  0  0  0  0  0  0  0  0  0  0  0
  -12.9444    4.1778   16.6474 C   0  0  0  0  0  0  0  0  0  0  0  0
  -14.1477    4.4430   17.2742 C   0  0  0  0  0  0  0  0  0  0  0  0
  -14.4743    3.9049   18.4985 C   0  0  0  0  0  0  0  0  0  0  0  0
  -13.5242    3.1260   19.1272 C   0  0  0  0  0  0  0  0  0  0  0  0
  -13.9707    2.5253   20.9019 Br  0  0  0  0  0  0  0  0  0  0  0  0
  -14.9956    5.2455   16.7050 F   0  0  0  0  0  0  0  0  0  0  0  0
  1  2  1  0
  2  4  1  0
  2  5  1  0
  3  5  2  0
  5  6  1  0
  6  7  2  0
  6 11  1  0
  7  8  1  0
  8  9  2  0
  9 10  1  0
  9 13  1  0
 10 11  2  0
 11 12  1  0
M  END
$$$$
