CypD-x0138-pandda-model
     RDKit          3D

 17 18  0  0  0  0  0  0  0  0999 V2000
   -9.6513    3.2516   24.1027 C   0  0  0  0  0  0  0  0  0  0  0  0
  -10.1097    2.5338   22.8769 N   0  0  0  0  0  0  0  0  0  0  0  0
  -10.2606    2.6494   19.2257 O   0  0  0  0  0  0  0  0  0  0  0  0
   -8.9320    1.9868   22.1081 C   0  0  0  0  0  0  0  0  0  0  0  0
  -10.7657    1.0400   20.6845 N   0  0  0  0  0  0  0  0  0  0  0  0
   -9.3336    0.8995   21.0849 C   0  0  0  0  0  0  0  0  0  0  0  0
  -12.3527    1.8129   19.1275 N   0  0  0  0  0  0  0  0  0  0  0  0
  -11.7168    0.8869   21.8380 C   0  0  0  0  0  0  0  0  0  0  0  0
  -11.1486    1.4777   23.1515 C   0  0  0  0  0  0  0  0  0  0  0  0
  -11.0885    1.8539   19.6328 C   0  0  0  0  0  0  0  0  0  0  0  0
  -13.0737    2.8120   18.4648 C   0  0  0  0  0  0  0  0  0  0  0  0
  -12.5109    3.6022   17.4624 C   0  0  0  0  0  0  0  0  0  0  0  0
  -13.2494    4.6072   16.8602 C   0  0  0  0  0  0  0  0  0  0  0  0
  -14.5532    4.8041   17.2738 C   0  0  0  0  0  0  0  0  0  0  0  0
  -15.1532    4.0173   18.2361 C   0  0  0  0  0  0  0  0  0  0  0  0
  -14.4022    3.0187   18.8299 C   0  0  0  0  0  0  0  0  0  0  0  0
  -15.2430    5.7792   16.7509 F   0  0  0  0  0  0  0  0  0  0  0  0
  1  2  1  0
  2  4  1  0
  2  9  1  0
  3 10  2  0
  4  6  1  0
  5  6  1  0
  5  8  1  0
  5 10  1  0
  7 10  1  0
  7 11  1  0
  8  9  1  0
 11 12  2  0
 11 16  1  0
 12 13  1  0
 13 14  2  0
 14 15  1  0
 14 17  1  0
 15 16  2  0
M  CHG  1   2   1
M  END
$$$$
