CypD-x0714-pandda-model
     RDKit          3D

 13 13  0  0  0  0  0  0  0  0999 V2000
   -8.4415   -0.8793   21.1419 C   0  0  0  0  0  0  0  0  0  0  0  0
  -11.9914    1.6188   19.4320 N   0  0  0  0  0  0  0  0  0  0  0  0
   -9.0134    0.1123   20.3550 O   0  0  0  0  0  0  0  0  0  0  0  0
  -10.1996    0.6507   20.8744 C   0  0  0  0  0  0  0  0  0  0  0  0
  -10.1235    2.8005   19.8880 O   0  0  0  0  0  0  0  0  0  0  0  0
  -10.7568    1.7759   20.0002 C   0  0  0  0  0  0  0  0  0  0  0  0
  -15.1344    5.5200   17.1146 O   0  0  0  0  0  0  0  0  0  0  0  0
  -12.7796    2.5894   18.7963 C   0  0  0  0  0  0  0  0  0  0  0  0
  -12.2392    3.5114   17.9036 C   0  0  0  0  0  0  0  0  0  0  0  0
  -13.0348    4.4937   17.3409 C   0  0  0  0  0  0  0  0  0  0  0  0
  -14.3794    4.5508   17.6542 C   0  0  0  0  0  0  0  0  0  0  0  0
  -14.9450    3.6158   18.5039 C   0  0  0  0  0  0  0  0  0  0  0  0
  -14.1414    2.6414   19.0722 C   0  0  0  0  0  0  0  0  0  0  0  0
  1  3  1  0
  2  6  1  0
  2  8  1  0
  3  4  1  0
  4  6  1  0
  5  6  2  0
  7 11  1  0
  8  9  2  0
  8 13  1  0
  9 10  1  0
 10 11  2  0
 11 12  1  0
 12 13  2  0
M  END
$$$$
