CypD-x0638-pandda-model
     RDKit          3D

 15 16  0  0  0  0  0  0  0  0999 V2000
  -11.3771    4.1537   24.5271 C   0  0  0  0  0  0  0  0  0  0  0  0
  -12.4310    1.9959   19.5330 N   0  0  0  0  0  0  0  0  0  0  0  0
  -10.5468    2.6144   18.5585 O   0  0  0  0  0  0  0  0  0  0  0  0
   -9.4385    2.0108   21.7580 S   0  0  0  0  0  0  0  0  0  0  0  0
  -10.8469    3.2833   23.4085 C   0  0  0  0  0  0  0  0  0  0  0  0
  -13.1977    4.9631   16.2453 N   0  0  0  0  0  0  0  0  0  0  0  0
   -9.5527    3.0540   23.1418 C   0  0  0  0  0  0  0  0  0  0  0  0
  -12.3074    4.0005   16.5282 N   0  0  0  0  0  0  0  0  0  0  0  0
  -11.1869    1.9789   21.6726 C   0  0  0  0  0  0  0  0  0  0  0  0
  -11.7723    2.6708   22.5757 N   0  0  0  0  0  0  0  0  0  0  0  0
  -11.7900    1.1399   20.5533 C   0  0  0  0  0  0  0  0  0  0  0  0
  -11.7586    2.7460   18.6139 C   0  0  0  0  0  0  0  0  0  0  0  0
  -12.4804    3.7213   17.8074 C   0  0  0  0  0  0  0  0  0  0  0  0
  -13.4946    4.5304   18.3351 C   0  0  0  0  0  0  0  0  0  0  0  0
  -13.9109    5.3151   17.3269 C   0  0  0  0  0  0  0  0  0  0  0  0
  1  5  1  0
  2 11  1  0
  2 12  1  0
  3 12  2  0
  4  7  1  0
  4  9  1  0
  5  7  2  0
  5 10  1  0
  6  8  1  0
  6 15  1  0
  8 13  2  0
  9 10  2  0
  9 11  1  0
 12 13  1  0
 13 14  1  0
 14 15  2  0
M  END
$$$$
