CypD-x0291-pandda-model
     RDKit          3D

 15 16  0  0  0  0  0  0  0  0999 V2000
  -14.0105    2.8187   20.3549 C   0  0  0  0  0  0  0  0  0  0  0  0
  -11.4211    2.2656   19.0548 N   0  0  0  0  0  0  0  0  0  0  0  0
   -8.6532   -0.7592   20.9201 O   0  0  0  0  0  0  0  0  0  0  0  0
  -13.6321    3.3539   18.9798 C   0  0  0  0  0  0  0  0  0  0  0  0
   -9.5728    1.8830   20.0606 N   0  0  0  0  0  0  0  0  0  0  0  0
  -10.6786   -1.4468   20.8248 O   0  0  0  0  0  0  0  0  0  0  0  0
  -14.5263    4.1695   18.3036 C   0  0  0  0  0  0  0  0  0  0  0  0
  -10.2556    2.7882   19.4632 N   0  0  0  0  0  0  0  0  0  0  0  0
  -14.2075    4.6807   17.0591 C   0  0  0  0  0  0  0  0  0  0  0  0
  -13.0053    4.3622   16.4641 C   0  0  0  0  0  0  0  0  0  0  0  0
  -12.1106    3.5442   17.1253 C   0  0  0  0  0  0  0  0  0  0  0  0
  -12.4033    3.0439   18.3905 C   0  0  0  0  0  0  0  0  0  0  0  0
  -11.4550    0.9867   19.4256 C   0  0  0  0  0  0  0  0  0  0  0  0
  -10.2881    0.7315   20.0652 C   0  0  0  0  0  0  0  0  0  0  0  0
   -9.8471   -0.5339   20.6480 C   0  0  0  0  0  0  0  0  0  0  0  0
  1  4  1  0
  2  8  1  0
  2 12  1  0
  2 13  1  0
  3 15  1  0
  4  7  2  0
  4 12  1  0
  5  8  2  0
  5 14  1  0
  6 15  2  0
  7  9  1  0
  9 10  2  0
 10 11  1  0
 11 12  2  0
 13 14  2  0
 14 15  1  0
M  CHG  1   3  -1
M  END
$$$$
