CypD-x0238-pandda-model
     RDKit          3D

 14 15  0  0  1  0  0  0  0  0999 V2000
  -10.1392   -0.0891   22.7856 C   0  0  0  0  0  0  0  0  0  0  0  0
  -11.2363   -1.5923   21.2404 N   0  0  0  0  0  0  0  0  0  0  0  0
  -10.2389   -0.5167   21.3261 C   0  0  1  0  0  0  0  0  0  0  0  0
  -11.5583    2.1251   19.1696 N   0  0  0  0  0  0  0  0  0  0  0  0
  -10.6380    0.6556   20.4336 C   0  0  0  0  0  0  0  0  0  0  0  0
  -10.2829    2.4722   19.4101 N   0  0  0  0  0  0  0  0  0  0  0  0
  -11.7936    0.9702   19.8185 C   0  0  0  0  0  0  0  0  0  0  0  0
   -9.7284    1.5941   20.1603 N   0  0  0  0  0  0  0  0  0  0  0  0
  -12.4608    2.9420   18.4452 C   0  0  0  0  0  0  0  0  0  0  0  0
  -12.1114    3.4239   17.1874 C   0  0  0  0  0  0  0  0  0  0  0  0
  -12.9620    4.2597   16.4895 C   0  0  0  0  0  0  0  0  0  0  0  0
  -14.1722    4.6245   17.0432 C   0  0  0  0  0  0  0  0  0  0  0  0
  -14.5448    4.1393   18.2832 C   0  0  0  0  0  0  0  0  0  0  0  0
  -13.6936    3.3028   18.9831 C   0  0  0  0  0  0  0  0  0  0  0  0
  3  1  1  1
  2  3  1  0
  3  5  1  0
  4  6  1  0
  4  7  1  0
  4  9  1  0
  5  7  2  0
  5  8  1  0
  6  8  2  0
  9 10  2  0
  9 14  1  0
 10 11  1  0
 11 12  2  0
 12 13  1  0
 13 14  2  0
M  CHG  1   2   1
M  END
$$$$
