CypD-x0483-pandda-model
     RDKit          3D

 15 16  0  0  0  0  0  0  0  0999 V2000
   -9.8214   -1.8281   22.4032 C   0  0  0  0  0  0  0  0  0  0  0  0
  -11.5137    1.2431   19.1053 N   0  0  0  0  0  0  0  0  0  0  0  0
  -10.6310    3.2090   18.4510 O   0  0  0  0  0  0  0  0  0  0  0  0
   -9.4012    1.7990   20.7719 S   0  0  0  0  0  0  0  0  0  0  0  0
   -9.8251   -0.5127   21.6570 C   0  0  0  0  0  0  0  0  0  0  0  0
  -10.7683   -0.3625   20.6585 N   0  0  0  0  0  0  0  0  0  0  0  0
  -15.4822    3.6013   17.4621 O   0  0  0  0  0  0  0  0  0  0  0  0
   -9.0018    0.5229   21.8825 C   0  0  0  0  0  0  0  0  0  0  0  0
  -10.6812    0.7918   20.1026 C   0  0  0  0  0  0  0  0  0  0  0  0
  -11.5360    2.4159   18.4079 C   0  0  0  0  0  0  0  0  0  0  0  0
  -12.7541    2.7757   17.5511 C   0  0  0  0  0  0  0  0  0  0  0  0
  -13.2274    4.2087   17.8756 C   0  0  0  0  0  0  0  0  0  0  0  0
  -14.5214    4.5588   17.1430 C   0  0  0  0  0  0  0  0  0  0  0  0
  -15.1819    2.3297   16.9634 C   0  0  0  0  0  0  0  0  0  0  0  0
  -13.9427    1.7985   17.6873 C   0  0  0  0  0  0  0  0  0  0  0  0
  1  5  1  0
  2  9  1  0
  2 10  1  0
  3 10  2  0
  4  8  1  0
  4  9  1  0
  5  6  1  0
  5  8  2  0
  6  9  2  0
  7 13  1  0
  7 14  1  0
 10 11  1  0
 11 12  1  0
 11 15  1  0
 12 13  1  0
 14 15  1  0
M  END
$$$$
