CypD-x0523-pandda-model
     RDKit          3D

 15 15  0  0  0  0  0  0  0  0999 V2000
  -14.9157    2.3767   22.4520 C   0  0  0  0  0  0  0  0  0  0  0  0
  -13.5993    3.0262   20.5376 N   0  0  0  0  0  0  0  0  0  0  0  0
  -10.0904    2.7739   19.4472 O   0  0  0  0  0  0  0  0  0  0  0  0
  -14.6443    3.4945   21.4543 C   0  0  0  0  0  0  0  0  0  0  0  0
  -14.3910    4.0424   18.6313 N   0  0  0  0  0  0  0  0  0  0  0  0
  -14.1605    4.7578   22.1511 C   0  0  0  0  0  0  0  0  0  0  0  0
  -11.3843    0.9648   19.6965 N   0  0  0  0  0  0  0  0  0  0  0  0
  -13.3993    3.3704   19.2188 C   0  0  0  0  0  0  0  0  0  0  0  0
  -14.1905    4.3946   17.3722 C   0  0  0  0  0  0  0  0  0  0  0  0
  -13.0468    4.1111   16.6481 C   0  0  0  0  0  0  0  0  0  0  0  0
  -12.0324    3.4046   17.2499 C   0  0  0  0  0  0  0  0  0  0  0  0
  -12.2032    3.0083   18.5674 C   0  0  0  0  0  0  0  0  0  0  0  0
  -11.1782    2.2560   19.2473 C   0  0  0  0  0  0  0  0  0  0  0  0
  -10.3684    0.2609   20.5304 C   0  0  0  0  0  0  0  0  0  0  0  0
  -12.6038    0.1652   19.3810 C   0  0  0  0  0  0  0  0  0  0  0  0
  1  4  1  0
  2  4  1  0
  2  8  1  0
  3 13  2  0
  4  6  1  0
  5  8  2  0
  5  9  1  0
  7 13  1  0
  7 14  1  0
  7 15  1  0
  8 12  1  0
  9 10  2  0
 10 11  1  0
 11 12  2  0
 12 13  1  0
M  END
$$$$
