CypD-x0992-pandda-model
     RDKit          3D

 12 13  0  0  0  0  0  0  0  0999 V2000
  -11.6920    1.2110   22.9470 C   0  0  0  0  0  0  0  0  0  0  0  0
  -12.9530    2.1880   21.1620 N   0  0  0  0  0  0  0  0  0  0  0  0
  -10.5380    1.1330   22.2060 C   0  0  0  0  0  0  0  0  0  0  0  0
  -11.3210    3.0340   17.0320 N   0  0  0  0  0  0  0  0  0  0  0  0
  -10.6340    1.6040   20.9160 C   0  0  0  0  0  0  0  0  0  0  0  0
  -10.8370    2.6320   18.2220 N   0  0  0  0  0  0  0  0  0  0  0  0
  -11.8330    2.1240   20.4110 C   0  0  0  0  0  0  0  0  0  0  0  0
  -12.8540    1.7310   22.4060 C   0  0  0  0  0  0  0  0  0  0  0  0
  -11.8750    2.5910   19.0300 C   0  0  0  0  0  0  0  0  0  0  0  0
  -13.0220    3.0360   18.3580 C   0  0  0  0  0  0  0  0  0  0  0  0
  -12.6350    3.3050   17.0960 C   0  0  0  0  0  0  0  0  0  0  0  0
  -11.6870    0.7830   24.1810 F   0  0  0  0  0  0  0  0  0  0  0  0
  1  3  2  0
  1  8  1  0
  1 12  1  0
  2  7  1  0
  2  8  2  0
  3  5  1  0
  4  6  1  0
  4 11  1  0
  5  7  2  0
  6  9  2  0
  7  9  1  0
  9 10  1  0
 10 11  2  0
M  END
$$$$
