CypD-x0548-pandda-model
     RDKit          3D

 13 14  0  0  0  0  0  0  0  0999 V2000
   -9.5538   -0.6233   21.0171 C   0  0  0  0  0  0  0  0  0  0  0  0
  -10.5383   -1.6949   21.1063 N   0  0  0  0  0  0  0  0  0  0  0  0
   -9.3542    1.5829   20.0072 O   0  0  0  0  0  0  0  0  0  0  0  0
  -10.1113    0.5443   20.2267 C   0  0  0  0  0  0  0  0  0  0  0  0
   -9.9661    2.4958   19.3164 N   0  0  0  0  0  0  0  0  0  0  0  0
  -11.2972    0.7772   19.6483 C   0  0  0  0  0  0  0  0  0  0  0  0
  -11.1606    2.0493   19.0835 C   0  0  0  0  0  0  0  0  0  0  0  0
  -12.1858    2.7786   18.3730 C   0  0  0  0  0  0  0  0  0  0  0  0
  -13.4947    2.8338   18.8488 C   0  0  0  0  0  0  0  0  0  0  0  0
  -14.4655    3.5603   18.1846 C   0  0  0  0  0  0  0  0  0  0  0  0
  -14.1473    4.2521   17.0319 C   0  0  0  0  0  0  0  0  0  0  0  0
  -12.8581    4.2029   16.5369 C   0  0  0  0  0  0  0  0  0  0  0  0
  -11.8922    3.4701   17.2015 C   0  0  0  0  0  0  0  0  0  0  0  0
  1  2  1  0
  1  4  1  0
  3  4  1  0
  3  5  1  0
  4  6  2  0
  5  7  2  0
  6  7  1  0
  7  8  1  0
  8  9  2  0
  8 13  1  0
  9 10  1  0
 10 11  2  0
 11 12  1  0
 12 13  2  0
M  END
$$$$
