CypD-x0647-pandda-model
     RDKit          3D

 13 14  0  0  0  0  0  0  0  0999 V2000
   -9.3490    1.6130   21.9530 C   0  0  0  0  0  0  0  0  0  0  0  0
  -10.4870    1.8210   19.8280 N   0  0  0  0  0  0  0  0  0  0  0  0
   -9.3300    1.1950   20.4940 C   0  0  0  0  0  0  0  0  0  0  0  0
  -15.2300    2.8190   18.7930 N   0  0  0  0  0  0  0  0  0  0  0  0
  -10.7470    1.3460   18.4510 C   0  0  0  0  0  0  0  0  0  0  0  0
  -11.8420    2.2210   17.9090 C   0  0  0  0  0  0  0  0  0  0  0  0
  -11.6190    3.1110   16.8810 C   0  0  0  0  0  0  0  0  0  0  0  0
  -12.6350    3.9450   16.4130 C   0  0  0  0  0  0  0  0  0  0  0  0
  -13.8750    3.9010   16.9910 C   0  0  0  0  0  0  0  0  0  0  0  0
  -14.1030    3.0140   18.0420 C   0  0  0  0  0  0  0  0  0  0  0  0
  -14.9770    1.8090   19.6770 C   0  0  0  0  0  0  0  0  0  0  0  0
  -13.7080    1.3670   19.5090 C   0  0  0  0  0  0  0  0  0  0  0  0
  -13.1150    2.1460   18.4860 C   0  0  0  0  0  0  0  0  0  0  0  0
  1  3  1  0
  2  3  1  0
  2  5  1  0
  4 10  1  0
  4 11  1  0
  5  6  1  0
  6  7  1  0
  6 13  2  0
  7  8  2  0
  8  9  1  0
  9 10  2  0
 10 13  1  0
 11 12  2  0
 12 13  1  0
M  CHG  1   2   1
M  END
$$$$
