CypD-x0333-pandda-model
     RDKit          3D

 14 14  0  0  0  0  0  0  0  0999 V2000
  -14.6463    2.2557   22.1997 C   0  0  0  0  0  0  0  0  0  0  0  0
  -13.9795    2.8239   19.9312 N   0  0  0  0  0  0  0  0  0  0  0  0
  -15.7425    3.8873   20.9221 O   0  0  0  0  0  0  0  0  0  0  0  0
  -14.8505    3.0678   20.9468 C   0  0  0  0  0  0  0  0  0  0  0  0
   -9.9651    2.3339   19.5690 O   0  0  0  0  0  0  0  0  0  0  0  0
  -13.7220    3.3921   18.6727 C   0  0  0  0  0  0  0  0  0  0  0  0
  -11.6709    1.5415   20.6508 O   0  0  0  0  0  0  0  0  0  0  0  0
  -14.4441    4.4797   18.1929 C   0  0  0  0  0  0  0  0  0  0  0  0
  -14.1239    5.0734   16.9873 C   0  0  0  0  0  0  0  0  0  0  0  0
  -13.0852    4.5723   16.2278 C   0  0  0  0  0  0  0  0  0  0  0  0
  -12.3719    3.4791   16.6770 C   0  0  0  0  0  0  0  0  0  0  0  0
  -12.6835    2.8801   17.8854 C   0  0  0  0  0  0  0  0  0  0  0  0
  -11.8570    1.6594   18.3052 C   0  0  0  0  0  0  0  0  0  0  0  0
  -11.1018    1.8527   19.5975 C   0  0  0  0  0  0  0  0  0  0  0  0
  1  4  1  0
  2  4  1  0
  2  6  1  0
  3  4  2  0
  5 14  1  0
  6  8  2  0
  6 12  1  0
  7 14  2  0
  8  9  1  0
  9 10  2  0
 10 11  1  0
 11 12  2  0
 12 13  1  0
 13 14  1  0
M  CHG  1   5  -1
M  END
$$$$
