CypD-x0094-pandda-model
     RDKit          3D

 15 16  0  0  0  0  0  0  0  0999 V2000
   -8.1577   -1.2936   23.3145 C   0  0  0  0  0  0  0  0  0  0  0  0
   -8.6687   -0.2368   22.4325 N   0  0  0  0  0  0  0  0  0  0  0  0
  -10.4791    2.8222   19.1257 O   0  0  0  0  0  0  0  0  0  0  0  0
   -8.3914    1.0777   22.5060 C   0  0  0  0  0  0  0  0  0  0  0  0
  -10.7284    0.7191   19.8782 N   0  0  0  0  0  0  0  0  0  0  0  0
   -9.1058    1.6840   21.5366 C   0  0  0  0  0  0  0  0  0  0  0  0
  -12.7537    2.8700   17.6173 N   0  0  0  0  0  0  0  0  0  0  0  0
   -9.8005    0.6509   20.9124 C   0  0  0  0  0  0  0  0  0  0  0  0
  -13.9325    3.4046   18.0127 N   0  0  0  0  0  0  0  0  0  0  0  0
  -11.0805    1.7729   19.0932 C   0  0  0  0  0  0  0  0  0  0  0  0
   -9.5338   -0.5035   21.4307 N   0  0  0  0  0  0  0  0  0  0  0  0
  -12.2380    1.5878   18.1288 C   0  0  0  0  0  0  0  0  0  0  0  0
  -12.1847    3.6145   16.6502 C   0  0  0  0  0  0  0  0  0  0  0  0
  -12.9960    4.6651   16.4245 C   0  0  0  0  0  0  0  0  0  0  0  0
  -14.0622    4.4804   17.2909 C   0  0  0  0  0  0  0  0  0  0  0  0
  1  2  1  0
  2  4  1  0
  2 11  1  0
  3 10  2  0
  4  6  2  0
  5  8  1  0
  5 10  1  0
  6  8  1  0
  7  9  1  0
  7 12  1  0
  7 13  1  0
  8 11  2  0
  9 15  2  0
 10 12  1  0
 13 14  2  0
 14 15  1  0
M  END
$$$$
