CypD-x0672-pandda-model
     RDKit          3D

 14 15  0  0  0  0  0  0  0  0999 V2000
  -13.2988    3.2215   18.7157 C   0  0  0  0  0  0  0  0  0  0  0  0
  -10.3154    2.1759   19.3832 N   0  0  0  0  0  0  0  0  0  0  0  0
  -14.1553    4.2299   18.3184 C   0  0  0  0  0  0  0  0  0  0  0  0
   -9.3795   -0.5607   21.3819 N   0  0  0  0  0  0  0  0  0  0  0  0
  -13.9231    4.8737   17.1166 C   0  0  0  0  0  0  0  0  0  0  0  0
   -8.6476    0.4542   21.9295 N   0  0  0  0  0  0  0  0  0  0  0  0
  -12.8415    4.4978   16.3405 C   0  0  0  0  0  0  0  0  0  0  0  0
  -11.9897    3.4861   16.7559 C   0  0  0  0  0  0  0  0  0  0  0  0
  -12.2061    2.8300   17.9585 C   0  0  0  0  0  0  0  0  0  0  0  0
  -11.2842    1.7031   18.3858 C   0  0  0  0  0  0  0  0  0  0  0  0
   -9.8983    1.3395   20.2717 C   0  0  0  0  0  0  0  0  0  0  0  0
  -10.1147   -0.0645   20.4665 C   0  0  0  0  0  0  0  0  0  0  0  0
   -8.9570    1.5401   21.3288 C   0  0  0  0  0  0  0  0  0  0  0  0
  -13.5552    2.6195   19.8465 F   0  0  0  0  0  0  0  0  0  0  0  0
  1  3  2  0
  1  9  1  0
  1 14  1  0
  2 10  1  0
  2 11  2  0
  3  5  1  0
  4  6  1  0
  4 12  2  0
  5  7  2  0
  6 13  2  0
  7  8  1  0
  8  9  2  0
  9 10  1  0
 11 12  1  0
 11 13  1  0
M  END
$$$$
