CypD-x0975-pandda-model
     RDKit          3D

 10 11  0  0  0  0  0  0  0  0999 V2000
  -14.0930    3.6940   18.4570 C   0  0  0  0  0  0  0  0  0  0  0  0
  -11.1240    1.8740   18.0650 N   0  0  0  0  0  0  0  0  0  0  0  0
  -14.2390    4.3990   17.2830 C   0  0  0  0  0  0  0  0  0  0  0  0
  -12.6380    2.0220   19.6800 N   0  0  0  0  0  0  0  0  0  0  0  0
  -13.2840    4.2670   16.2660 C   0  0  0  0  0  0  0  0  0  0  0  0
  -12.1990    3.4360   16.4280 C   0  0  0  0  0  0  0  0  0  0  0  0
  -12.0680    2.7350   17.6240 C   0  0  0  0  0  0  0  0  0  0  0  0
  -11.5300    1.4840   19.2970 C   0  0  0  0  0  0  0  0  0  0  0  0
  -13.0000    2.8360   18.6390 C   0  0  0  0  0  0  0  0  0  0  0  0
  -15.2720    3.8880   19.7350 Cl  0  0  0  0  0  0  0  0  0  0  0  0
  1  3  2  0
  1  9  1  0
  1 10  1  0
  2  7  1  0
  2  8  1  0
  3  5  1  0
  4  8  2  0
  4  9  1  0
  5  6  2  0
  6  7  1  0
  7  9  2  0
M  END
$$$$
