CypD-x0714-pandda-model
     RDKit          3D

 13 13  0  0  0  0  0  0  0  0999 V2000
  -11.7410   -0.7210   21.6890 C   0  0  0  0  0  0  0  0  0  0  0  0
  -11.8660    1.4290   19.0810 N   0  0  0  0  0  0  0  0  0  0  0  0
  -11.0420   -0.7590   20.4830 O   0  0  0  0  0  0  0  0  0  0  0  0
  -10.0670    0.2490   20.3380 C   0  0  0  0  0  0  0  0  0  0  0  0
   -9.8720    2.4250   19.4660 O   0  0  0  0  0  0  0  0  0  0  0  0
  -10.5960    1.4660   19.5820 C   0  0  0  0  0  0  0  0  0  0  0  0
  -14.7630    5.6430   17.0120 O   0  0  0  0  0  0  0  0  0  0  0  0
  -12.6070    2.4670   18.4990 C   0  0  0  0  0  0  0  0  0  0  0  0
  -12.0270    3.3720   17.6150 C   0  0  0  0  0  0  0  0  0  0  0  0
  -12.7590    4.4330   17.1150 C   0  0  0  0  0  0  0  0  0  0  0  0
  -14.0800    4.5900   17.4840 C   0  0  0  0  0  0  0  0  0  0  0  0
  -14.6910    3.6690   18.3180 C   0  0  0  0  0  0  0  0  0  0  0  0
  -13.9520    2.6140   18.8240 C   0  0  0  0  0  0  0  0  0  0  0  0
  1  3  1  0
  2  6  1  0
  2  8  1  0
  3  4  1  0
  4  6  1  0
  5  6  2  0
  7 11  1  0
  8  9  2  0
  8 13  1  0
  9 10  1  0
 10 11  2  0
 11 12  1  0
 12 13  2  0
M  END
$$$$
