CypD-x0359-pandda-model
     RDKit          3D

 16 17  0  0  0  0  0  0  0  0999 V2000
  -10.5778    1.6481   20.2611 C   0  0  0  0  0  0  0  0  0  0  0  0
  -11.9012    1.7273   19.9366 N   0  0  0  0  0  0  0  0  0  0  0  0
   -9.7840    2.4797   19.8715 O   0  0  0  0  0  0  0  0  0  0  0  0
  -12.5439    2.5720   19.0205 C   0  0  0  0  0  0  0  0  0  0  0  0
  -10.1765    0.6034   21.0417 N   0  0  0  0  0  0  0  0  0  0  0  0
  -13.8339    3.0121   19.2921 C   0  0  0  0  0  0  0  0  0  0  0  0
   -6.8511    1.1342   22.6149 N   0  0  0  0  0  0  0  0  0  0  0  0
  -14.5047    3.8334   18.4047 C   0  0  0  0  0  0  0  0  0  0  0  0
  -13.8950    4.2245   17.2265 C   0  0  0  0  0  0  0  0  0  0  0  0
  -12.6148    3.7866   16.9369 C   0  0  0  0  0  0  0  0  0  0  0  0
  -11.9459    2.9677   17.8283 C   0  0  0  0  0  0  0  0  0  0  0  0
   -8.9230    0.3485   21.6261 C   0  0  0  0  0  0  0  0  0  0  0  0
   -8.5332   -0.9679   21.8018 C   0  0  0  0  0  0  0  0  0  0  0  0
   -7.3085   -1.2062   22.3840 C   0  0  0  0  0  0  0  0  0  0  0  0
   -6.5176   -0.1379   22.7682 C   0  0  0  0  0  0  0  0  0  0  0  0
   -8.0404    1.3435   22.0609 C   0  0  0  0  0  0  0  0  0  0  0  0
  1  2  1  0
  1  3  2  0
  1  5  1  0
  2  4  1  0
  4  6  2  0
  4 11  1  0
  5 12  1  0
  6  8  1  0
  7 15  2  0
  7 16  1  0
  8  9  2  0
  9 10  1  0
 10 11  2  0
 12 13  1  0
 12 16  2  0
 13 14  2  0
 14 15  1  0
M  END
$$$$
