CypD-x0051-pandda-model
     RDKit          3D

 13 14  0  0  0  0  0  0  0  0999 V2000
  -12.7250   -0.9590   21.7450 C   0  0  0  0  0  0  0  0  0  0  0  0
  -13.0750    0.7940   20.0370 N   0  0  0  0  0  0  0  0  0  0  0  0
  -10.0560    2.2550   19.2590 O   0  0  0  0  0  0  0  0  0  0  0  0
  -12.3070    0.1410   20.7950 C   0  0  0  0  0  0  0  0  0  0  0  0
  -12.3190    1.7060   19.3270 N   0  0  0  0  0  0  0  0  0  0  0  0
  -10.9910    1.6100   19.6740 C   0  0  0  0  0  0  0  0  0  0  0  0
  -10.8510    0.5360   20.7120 C   0  0  0  0  0  0  0  0  0  0  0  0
  -12.9000    2.6610   18.4640 C   0  0  0  0  0  0  0  0  0  0  0  0
  -12.2830    3.0340   17.2740 C   0  0  0  0  0  0  0  0  0  0  0  0
  -12.8460    3.9980   16.4580 C   0  0  0  0  0  0  0  0  0  0  0  0
  -14.0340    4.6060   16.8190 C   0  0  0  0  0  0  0  0  0  0  0  0
  -14.6730    4.2300   17.9860 C   0  0  0  0  0  0  0  0  0  0  0  0
  -14.1090    3.2640   18.7990 C   0  0  0  0  0  0  0  0  0  0  0  0
  1  4  1  0
  2  4  2  0
  2  5  1  0
  3  6  2  0
  4  7  1  0
  5  6  1  0
  5  8  1  0
  6  7  1  0
  8  9  2  0
  8 13  1  0
  9 10  1  0
 10 11  2  0
 11 12  1  0
 12 13  2  0
M  END
$$$$
