CypD-x0897-pandda-model
     RDKit          3D

 15 17  0  0  1  0  0  0  0  0999 V2000
  -17.6240    1.5380   21.0920 C   0  0  0  0  0  0  0  0  0  0  0  0
  -16.5900    3.3040   22.4720 N   0  0  0  0  0  0  0  0  0  0  0  0
  -17.8870    2.7490   21.9940 C   0  0  0  0  0  0  0  0  0  0  0  0
  -11.3360    2.4690   17.8250 N   0  0  0  0  0  0  0  0  0  0  0  0
  -15.6980    3.7100   21.3370 C   0  0  0  0  0  0  0  0  0  0  0  0
  -15.4150    2.5590   20.3580 C   0  0  1  0  0  0  0  0  0  0  0  0
  -16.7260    1.8960   19.8960 C   0  0  0  0  0  0  0  0  0  0  0  0
  -14.5990    3.0790   19.1720 C   0  0  0  0  0  0  0  0  0  0  0  0
  -15.1290    3.9960   18.2860 C   0  0  0  0  0  0  0  0  0  0  0  0
  -14.3900    4.4670   17.1950 C   0  0  0  0  0  0  0  0  0  0  0  0
  -13.1160    4.0130   16.9630 C   0  0  0  0  0  0  0  0  0  0  0  0
  -12.5660    3.0820   17.8450 C   0  0  0  0  0  0  0  0  0  0  0  0
  -11.2600    1.6580   18.9190 C   0  0  0  0  0  0  0  0  0  0  0  0
  -12.4180    1.7260   19.6180 C   0  0  0  0  0  0  0  0  0  0  0  0
  -13.2850    2.6240   18.9500 C   0  0  0  0  0  0  0  0  0  0  0  0
  1  3  1  0
  1  7  1  0
  2  3  1  0
  2  5  1  0
  4 12  1  0
  4 13  1  0
  5  6  1  0
  6  7  1  0
  6  8  1  6
  8  9  1  0
  8 15  2  0
  9 10  2  0
 10 11  1  0
 11 12  2  0
 12 15  1  0
 13 14  2  0
 14 15  1  0
M  CHG  1   2   1
M  END
$$$$
