CypD-x0638-pandda-model
     RDKit          3D

 15 16  0  0  0  0  0  0  0  0999 V2000
  -11.3824    3.7212   24.6130 C   0  0  0  0  0  0  0  0  0  0  0  0
  -12.2250    1.5212   19.6834 N   0  0  0  0  0  0  0  0  0  0  0  0
  -10.5568    2.7340   18.8693 O   0  0  0  0  0  0  0  0  0  0  0  0
   -9.1404    1.8707   21.8624 S   0  0  0  0  0  0  0  0  0  0  0  0
  -10.7233    2.9426   23.4970 C   0  0  0  0  0  0  0  0  0  0  0  0
  -14.4503    4.7855   18.0346 N   0  0  0  0  0  0  0  0  0  0  0  0
   -9.4060    2.8873   23.2453 C   0  0  0  0  0  0  0  0  0  0  0  0
  -13.8050    3.9110   18.8396 N   0  0  0  0  0  0  0  0  0  0  0  0
  -10.8693    1.6158   21.7511 C   0  0  0  0  0  0  0  0  0  0  0  0
  -11.5476    2.2214   22.6479 N   0  0  0  0  0  0  0  0  0  0  0  0
  -11.3656    0.7380   20.6079 C   0  0  0  0  0  0  0  0  0  0  0  0
  -11.7556    2.5547   18.9422 C   0  0  0  0  0  0  0  0  0  0  0  0
  -12.6581    3.4488   18.2910 C   0  0  0  0  0  0  0  0  0  0  0  0
  -12.5705    4.0536   17.0787 C   0  0  0  0  0  0  0  0  0  0  0  0
  -13.6819    4.8691   16.9858 C   0  0  0  0  0  0  0  0  0  0  0  0
  1  5  1  0
  2 11  1  0
  2 12  1  0
  3 12  2  0
  4  7  1  0
  4  9  1  0
  5  7  2  0
  5 10  1  0
  6  8  1  0
  6 15  2  0
  8 13  1  0
  9 10  2  0
  9 11  1  0
 12 13  1  0
 13 14  2  0
 14 15  1  0
M  END
$$$$
