CypD-x0964-pandda-model
     RDKit          3D

 12 13  0  0  0  0  0  0  0  0999 V2000
  -12.1124    3.0905   18.1679 C   0  0  0  0  0  0  0  0  0  0  0  0
  -10.7853    2.7533   18.0465 N   0  0  0  0  0  0  0  0  0  0  0  0
  -16.9963    3.4671   19.4464 O   0  0  0  0  0  0  0  0  0  0  0  0
  -12.8620    2.5951   19.2241 C   0  0  0  0  0  0  0  0  0  0  0  0
  -16.9970    4.7197   17.7233 N   0  0  0  0  0  0  0  0  0  0  0  0
  -14.2058    2.8935   19.3359 C   0  0  0  0  0  0  0  0  0  0  0  0
  -18.2191    3.8264   19.3219 N   0  0  0  0  0  0  0  0  0  0  0  0
  -14.8547    3.7051   18.3998 C   0  0  0  0  0  0  0  0  0  0  0  0
  -14.0759    4.2186   17.3593 C   0  0  0  0  0  0  0  0  0  0  0  0
  -12.7353    3.9112   17.2386 C   0  0  0  0  0  0  0  0  0  0  0  0
  -16.2689    3.9859   18.4932 C   0  0  0  0  0  0  0  0  0  0  0  0
  -18.2066    4.5704   18.2828 C   0  0  0  0  0  0  0  0  0  0  0  0
  1  2  1  0
  1  4  2  0
  1 10  1  0
  3  7  1  0
  3 11  1  0
  4  6  1  0
  5 11  2  0
  5 12  1  0
  6  8  2  0
  7 12  2  0
  8  9  1  0
  8 11  1  0
  9 10  2  0
M  END
$$$$
