CypD-x0826-pandda-model
     RDKit          3D

 14 15  0  0  1  0  0  0  0  0999 V2000
  -11.3055   -1.6059   21.2740 C   0  0  0  0  0  0  0  0  0  0  0  0
   -9.9965    0.0140   22.5180 N   0  0  0  0  0  0  0  0  0  0  0  0
  -10.2326   -0.5276   21.1751 C   0  0  2  0  0  0  0  0  0  0  0  0
  -11.5743    2.0717   18.9923 N   0  0  0  0  0  0  0  0  0  0  0  0
  -10.6324    0.6339   20.2744 C   0  0  0  0  0  0  0  0  0  0  0  0
  -10.3476    2.5107   19.3444 N   0  0  0  0  0  0  0  0  0  0  0  0
  -11.7562    0.8780   19.5789 C   0  0  0  0  0  0  0  0  0  0  0  0
   -9.7809    1.6490   20.1059 N   0  0  0  0  0  0  0  0  0  0  0  0
  -12.5292    2.8621   18.2995 C   0  0  0  0  0  0  0  0  0  0  0  0
  -13.8686    2.8726   18.6837 C   0  0  0  0  0  0  0  0  0  0  0  0
  -14.7832    3.6782   18.0288 C   0  0  0  0  0  0  0  0  0  0  0  0
  -14.3682    4.4914   16.9923 C   0  0  0  0  0  0  0  0  0  0  0  0
  -13.0474    4.4785   16.5880 C   0  0  0  0  0  0  0  0  0  0  0  0
  -12.1354    3.6656   17.2330 C   0  0  0  0  0  0  0  0  0  0  0  0
  3  1  1  1
  2  3  1  0
  3  5  1  0
  4  6  1  0
  4  7  1  0
  4  9  1  0
  5  7  2  0
  5  8  1  0
  6  8  2  0
  9 10  2  0
  9 14  1  0
 10 11  1  0
 11 12  2  0
 12 13  1  0
 13 14  2  0
M  CHG  1   2   1
M  END
$$$$
