CypD-x0647-pandda-model
     RDKit          3D

 13 14  0  0  0  0  0  0  0  0999 V2000
   -8.9508    0.3614   21.5883 C   0  0  0  0  0  0  0  0  0  0  0  0
  -10.4440    0.9481   19.7768 N   0  0  0  0  0  0  0  0  0  0  0  0
  -10.1250   -0.1149   20.7484 C   0  0  0  0  0  0  0  0  0  0  0  0
  -14.0929    4.5025   20.0011 N   0  0  0  0  0  0  0  0  0  0  0  0
  -11.6003    0.6537   18.9088 C   0  0  0  0  0  0  0  0  0  0  0  0
  -12.1318    1.9808   18.4412 C   0  0  0  0  0  0  0  0  0  0  0  0
  -11.9448    2.4575   17.1604 C   0  0  0  0  0  0  0  0  0  0  0  0
  -12.4917    3.6840   16.7662 C   0  0  0  0  0  0  0  0  0  0  0  0
  -13.2231    4.4386   17.6517 C   0  0  0  0  0  0  0  0  0  0  0  0
  -13.4006    3.9619   18.9493 C   0  0  0  0  0  0  0  0  0  0  0  0
  -13.9832    3.6503   21.0622 C   0  0  0  0  0  0  0  0  0  0  0  0
  -13.2442    2.5747   20.7067 C   0  0  0  0  0  0  0  0  0  0  0  0
  -12.8629    2.7472   19.3556 C   0  0  0  0  0  0  0  0  0  0  0  0
  1  3  1  0
  2  3  1  0
  2  5  1  0
  4 10  1  0
  4 11  1  0
  5  6  1  0
  6  7  1  0
  6 13  2  0
  7  8  2  0
  8  9  1  0
  9 10  2  0
 10 13  1  0
 11 12  2  0
 12 13  1  0
M  CHG  1   2   1
M  END
$$$$
