CypD-x0190-pandda-model
     RDKit          3D

 16 17  0  0  0  0  0  0  0  0999 V2000
   -9.3185    3.3800   24.4573 C   0  0  0  0  0  0  0  0  0  0  0  0
   -9.8373    2.6512   23.2633 N   0  0  0  0  0  0  0  0  0  0  0  0
  -10.0176    2.5008   19.5506 O   0  0  0  0  0  0  0  0  0  0  0  0
  -10.8648    1.6041   23.6069 C   0  0  0  0  0  0  0  0  0  0  0  0
  -10.5691    1.0432   21.1512 N   0  0  0  0  0  0  0  0  0  0  0  0
  -11.5038    0.9968   22.3283 C   0  0  0  0  0  0  0  0  0  0  0  0
  -12.1403    1.7426   19.5399 N   0  0  0  0  0  0  0  0  0  0  0  0
   -9.1325    0.9038   21.5439 C   0  0  0  0  0  0  0  0  0  0  0  0
   -8.7012    2.0914   22.4325 C   0  0  0  0  0  0  0  0  0  0  0  0
  -10.8718    1.7809   20.0361 C   0  0  0  0  0  0  0  0  0  0  0  0
  -12.7858    2.6080   18.6475 C   0  0  0  0  0  0  0  0  0  0  0  0
  -14.1338    2.8902   18.8447 C   0  0  0  0  0  0  0  0  0  0  0  0
  -14.8070    3.7563   18.0022 C   0  0  0  0  0  0  0  0  0  0  0  0
  -14.1401    4.3563   16.9517 C   0  0  0  0  0  0  0  0  0  0  0  0
  -12.8084    4.0657   16.7271 C   0  0  0  0  0  0  0  0  0  0  0  0
  -12.1363    3.1951   17.5656 C   0  0  0  0  0  0  0  0  0  0  0  0
  1  2  1  0
  2  4  1  0
  2  9  1  0
  3 10  2  0
  4  6  1  0
  5  6  1  0
  5  8  1  0
  5 10  1  0
  7 10  1  0
  7 11  1  0
  8  9  1  0
 11 12  2  0
 11 16  1  0
 12 13  1  0
 13 14  2  0
 14 15  1  0
 15 16  2  0
M  CHG  1   2   1
M  END
$$$$
