CypD-x0508-pandda-model
     RDKit          3D

 14 15  0  0  0  0  0  0  0  0999 V2000
   -9.1003    2.0744   21.6980 C   0  0  0  0  0  0  0  0  0  0  0  0
  -10.5286    2.0657   21.2829 N   0  0  0  0  0  0  0  0  0  0  0  0
  -10.2321    2.8221   19.2184 O   0  0  0  0  0  0  0  0  0  0  0  0
  -11.0236    2.5114   20.0903 C   0  0  0  0  0  0  0  0  0  0  0  0
  -14.6737    2.5796   20.2298 N   0  0  0  0  0  0  0  0  0  0  0  0
  -12.4498    2.6597   19.9178 C   0  0  0  0  0  0  0  0  0  0  0  0
  -13.4675    2.1644   20.6903 C   0  0  0  0  0  0  0  0  0  0  0  0
  -15.9893    2.1554   20.7362 C   0  0  0  0  0  0  0  0  0  0  0  0
  -14.4531    3.3833   19.1382 C   0  0  0  0  0  0  0  0  0  0  0  0
  -15.3467    4.0929   18.3296 C   0  0  0  0  0  0  0  0  0  0  0  0
  -14.8519    4.8299   17.2777 C   0  0  0  0  0  0  0  0  0  0  0  0
  -13.4827    4.8452   17.0013 C   0  0  0  0  0  0  0  0  0  0  0  0
  -12.6076    4.1417   17.7934 C   0  0  0  0  0  0  0  0  0  0  0  0
  -13.0831    3.4212   18.8954 C   0  0  0  0  0  0  0  0  0  0  0  0
  1  2  1  0
  2  4  1  0
  3  4  2  0
  4  6  1  0
  5  7  1  0
  5  8  1  0
  5  9  1  0
  6  7  2  0
  6 14  1  0
  9 10  2  0
  9 14  1  0
 10 11  1  0
 11 12  2  0
 12 13  1  0
 13 14  2  0
M  END
$$$$
