CypD-x0522-pandda-model
     RDKit          3D

 12 12  0  0  0  0  0  0  0  0999 V2000
  -12.8735    3.6066   16.0429 C   0  0  0  0  0  0  0  0  0  0  0  0
  -13.5918    4.0794   17.2483 N   0  0  0  0  0  0  0  0  0  0  0  0
  -13.6989    4.1406   19.5030 O   0  0  0  0  0  0  0  0  0  0  0  0
  -14.6878    4.7455   17.1304 C   0  0  0  0  0  0  0  0  0  0  0  0
  -11.1995    2.8324   19.8994 N   0  0  0  0  0  0  0  0  0  0  0  0
  -13.0126    3.7623   18.5058 C   0  0  0  0  0  0  0  0  0  0  0  0
  -10.7203    2.4960   22.0034 N   0  0  0  0  0  0  0  0  0  0  0  0
  -11.8211    3.1278   18.6768 C   0  0  0  0  0  0  0  0  0  0  0  0
   -8.4476    2.1826   21.7073 N   0  0  0  0  0  0  0  0  0  0  0  0
  -11.6558    2.7679   21.1585 C   0  0  0  0  0  0  0  0  0  0  0  0
   -9.8841    2.5907   19.9349 N   0  0  0  0  0  0  0  0  0  0  0  0
   -9.6784    2.4106   21.1884 C   0  0  0  0  0  0  0  0  0  0  0  0
  1  2  1  0
  2  4  2  0
  2  6  1  0
  3  6  1  0
  5  8  1  0
  5 10  1  0
  5 11  1  0
  6  8  2  0
  7 10  2  0
  7 12  1  0
  9 12  1  0
 11 12  2  0
M  CHG  2   2   1   3  -1
M  END
$$$$
