CypD-x0309-pandda-model
     RDKit          3D

 15 16  0  0  0  0  0  0  0  0999 V2000
  -16.3898    1.7314   17.7054 C   0  0  0  0  0  0  0  0  0  0  0  0
  -14.5814    4.7130   17.7605 N   0  0  0  0  0  0  0  0  0  0  0  0
  -14.6801    1.2507   19.5764 O   0  0  0  0  0  0  0  0  0  0  0  0
  -15.4096    2.3757   19.0377 S   0  0  0  0  0  0  0  0  0  0  0  0
  -14.2754    3.4998   18.1472 C   0  0  0  0  0  0  0  0  0  0  0  0
  -13.0178    3.1379   17.7468 N   0  0  0  0  0  0  0  0  0  0  0  0
  -16.3035    3.1185   19.9110 O   0  0  0  0  0  0  0  0  0  0  0  0
  -10.5641    0.9682   21.3649 S   0  0  0  0  0  0  0  0  0  0  0  0
  -13.5043    5.1435   17.0866 C   0  0  0  0  0  0  0  0  0  0  0  0
  -10.3998    2.5441   19.3551 N   0  0  0  0  0  0  0  0  0  0  0  0
  -12.5475    4.1990   17.0684 C   0  0  0  0  0  0  0  0  0  0  0  0
  -12.2841    1.8446   17.8431 C   0  0  0  0  0  0  0  0  0  0  0  0
  -11.4875    1.7033   19.1355 C   0  0  0  0  0  0  0  0  0  0  0  0
  -11.7353    0.7957   20.0939 C   0  0  0  0  0  0  0  0  0  0  0  0
   -9.8333    2.2765   20.4696 C   0  0  0  0  0  0  0  0  0  0  0  0
  1  4  1  0
  2  5  2  0
  2  9  1  0
  3  4  2  0
  4  5  1  0
  4  7  2  0
  5  6  1  0
  6 11  1  0
  6 12  1  0
  8 14  1  0
  8 15  1  0
  9 11  2  0
 10 13  1  0
 10 15  2  0
 12 13  1  0
 13 14  2  0
M  END
$$$$
