CypD-x0601-pandda-model
     RDKit          3D

 14 15  0  0  0  0  0  0  0  0999 V2000
  -11.5700    2.2920   18.8960 C   0  0  0  0  0  0  0  0  0  0  0  0
  -11.7690    1.0380   19.4110 N   0  0  0  0  0  0  0  0  0  0  0  0
  -10.4590    2.7870   18.9180 O   0  0  0  0  0  0  0  0  0  0  0  0
  -10.8570    0.2330   20.1410 C   0  0  0  0  0  0  0  0  0  0  0  0
   -9.0300   -0.4510   21.2500 N   0  0  0  0  0  0  0  0  0  0  0  0
   -9.5800    0.5450   20.6200 C   0  0  0  0  0  0  0  0  0  0  0  0
   -9.9480   -1.4320   21.1970 N   0  0  0  0  0  0  0  0  0  0  0  0
  -11.0610   -1.0420   20.5350 C   0  0  0  0  0  0  0  0  0  0  0  0
  -14.7630    4.7030   17.3490 N   0  0  0  0  0  0  0  0  0  0  0  0
  -12.6740    3.0580   18.3520 C   0  0  0  0  0  0  0  0  0  0  0  0
  -12.5030    3.9120   17.2740 C   0  0  0  0  0  0  0  0  0  0  0  0
  -13.5450    4.7000   16.8270 C   0  0  0  0  0  0  0  0  0  0  0  0
  -14.9390    3.8660   18.3580 C   0  0  0  0  0  0  0  0  0  0  0  0
  -13.9570    3.0470   18.8850 C   0  0  0  0  0  0  0  0  0  0  0  0
  1  2  1  0
  1  3  2  0
  1 10  1  0
  2  4  1  0
  4  6  1  0
  4  8  2  0
  5  6  2  0
  5  7  1  0
  7  8  1  0
  9 12  2  0
  9 13  1  0
 10 11  2  0
 10 14  1  0
 11 12  1  0
 13 14  2  0
M  END
$$$$
