CypD-x0309-pandda-model
     RDKit          3D

 15 16  0  0  0  0  0  0  0  0999 V2000
  -16.3590    3.2720   18.4840 C   0  0  0  0  0  0  0  0  0  0  0  0
  -13.7760    4.6940   17.2780 N   0  0  0  0  0  0  0  0  0  0  0  0
  -14.6410    1.6170   19.4950 O   0  0  0  0  0  0  0  0  0  0  0  0
  -14.7800    3.0390   19.2670 S   0  0  0  0  0  0  0  0  0  0  0  0
  -13.6410    3.5830   17.9530 C   0  0  0  0  0  0  0  0  0  0  0  0
  -12.5620    2.8560   17.5390 N   0  0  0  0  0  0  0  0  0  0  0  0
  -14.7380    3.9470   20.3980 O   0  0  0  0  0  0  0  0  0  0  0  0
  -10.7610    1.1330   21.7310 S   0  0  0  0  0  0  0  0  0  0  0  0
  -12.7880    4.6710   16.3760 C   0  0  0  0  0  0  0  0  0  0  0  0
  -10.1760    2.1650   19.4650 N   0  0  0  0  0  0  0  0  0  0  0  0
  -12.0400    3.5620   16.5190 C   0  0  0  0  0  0  0  0  0  0  0  0
  -12.0650    1.5140   17.9480 C   0  0  0  0  0  0  0  0  0  0  0  0
  -11.3940    1.5140   19.3170 C   0  0  0  0  0  0  0  0  0  0  0  0
  -11.8690    0.8990   20.4140 C   0  0  0  0  0  0  0  0  0  0  0  0
   -9.7320    2.0470   20.6570 C   0  0  0  0  0  0  0  0  0  0  0  0
  1  4  1  0
  2  5  2  0
  2  9  1  0
  3  4  2  0
  4  5  1  0
  4  7  2  0
  5  6  1  0
  6 11  1  0
  6 12  1  0
  8 14  1  0
  8 15  1  0
  9 11  2  0
 10 13  1  0
 10 15  2  0
 12 13  1  0
 13 14  2  0
M  END
$$$$
