CypD-x0365-pandda-model
     RDKit          3D

 15 16  0  0  1  0  0  0  0  0999 V2000
   -9.4641    1.9916   21.7978 C   0  0  0  0  0  0  0  0  0  0  0  0
  -10.4722    0.9672   21.4949 N   0  0  0  0  0  0  0  0  0  0  0  0
  -10.5681    2.9077   19.0780 O   0  0  0  0  0  0  0  0  0  0  0  0
  -10.6879    0.7522   20.0452 C   0  0  1  0  0  0  0  0  0  0  0  0
  -12.6340    1.9718   18.8873 N   0  0  0  0  0  0  0  0  0  0  0  0
  -11.5221   -0.5279   19.9209 C   0  0  0  0  0  0  0  0  0  0  0  0
  -13.0184   -0.2306   20.0070 C   0  0  0  0  0  0  0  0  0  0  0  0
  -13.4176    0.6995   18.8634 C   0  0  0  0  0  0  0  0  0  0  0  0
  -11.3031    1.9655   19.2881 C   0  0  0  0  0  0  0  0  0  0  0  0
  -13.2734    3.0729   18.2740 C   0  0  0  0  0  0  0  0  0  0  0  0
  -14.5593    3.4445   18.6598 C   0  0  0  0  0  0  0  0  0  0  0  0
  -15.2221    4.4848   18.0363 C   0  0  0  0  0  0  0  0  0  0  0  0
  -14.5930    5.2000   17.0348 C   0  0  0  0  0  0  0  0  0  0  0  0
  -13.3139    4.8525   16.6407 C   0  0  0  0  0  0  0  0  0  0  0  0
  -12.6658    3.7937   17.2490 C   0  0  0  0  0  0  0  0  0  0  0  0
  1  2  1  0
  4  2  1  1
  3  9  2  0
  4  6  1  0
  4  9  1  0
  5  8  1  0
  5  9  1  0
  5 10  1  0
  6  7  1  0
  7  8  1  0
 10 11  2  0
 10 15  1  0
 11 12  1  0
 12 13  2  0
 13 14  1  0
 14 15  2  0
M  END
$$$$
