CypD-x0127-pandda-model
     RDKit          3D

 13 13  0  0  0  0  0  0  0  0999 V2000
   -8.1552    1.8106   21.9460 C   0  0  0  0  0  0  0  0  0  0  0  0
  -11.7570    1.8107   19.5521 N   0  0  0  0  0  0  0  0  0  0  0  0
   -8.4679    0.8232   21.0051 O   0  0  0  0  0  0  0  0  0  0  0  0
   -9.8399    0.7070   20.7068 C   0  0  0  0  0  0  0  0  0  0  0  0
   -9.6955    2.7077   19.4099 O   0  0  0  0  0  0  0  0  0  0  0  0
  -10.4136    1.8300   19.8257 C   0  0  0  0  0  0  0  0  0  0  0  0
  -14.8048    5.6358   16.9896 O   0  0  0  0  0  0  0  0  0  0  0  0
  -12.5241    2.7623   18.8583 C   0  0  0  0  0  0  0  0  0  0  0  0
  -13.8465    2.9694   19.2403 C   0  0  0  0  0  0  0  0  0  0  0  0
  -14.6268    3.9230   18.6114 C   0  0  0  0  0  0  0  0  0  0  0  0
  -14.0792    4.6863   17.5945 C   0  0  0  0  0  0  0  0  0  0  0  0
  -12.7805    4.4745   17.1789 C   0  0  0  0  0  0  0  0  0  0  0  0
  -12.0100    3.5104   17.8018 C   0  0  0  0  0  0  0  0  0  0  0  0
  1  3  1  0
  2  6  1  0
  2  8  1  0
  3  4  1  0
  4  6  1  0
  5  6  2  0
  7 11  1  0
  8  9  2  0
  8 13  1  0
  9 10  1  0
 10 11  2  0
 11 12  1  0
 12 13  2  0
M  END
$$$$
