CypD-x0209-pandda-model
     RDKit          3D

 10 10  0  0  0  0  0  0  0  0999 V2000
  -13.2006    4.5385   16.7973 C   0  0  0  0  0  0  0  0  0  0  0  0
  -11.6819    2.6470   17.2211 N   0  0  0  0  0  0  0  0  0  0  0  0
  -13.2175    2.0809   18.7296 O   0  0  0  0  0  0  0  0  0  0  0  0
  -12.5976    3.2533   16.2347 C   0  0  0  0  0  0  0  0  0  0  0  0
   -9.8849    1.7823   21.2767 N   0  0  0  0  0  0  0  0  0  0  0  0
  -12.0307    2.1998   18.4651 C   0  0  0  0  0  0  0  0  0  0  0  0
   -9.1020    1.3902   20.2640 N   0  0  0  0  0  0  0  0  0  0  0  0
  -11.0195    1.9345   19.4688 C   0  0  0  0  0  0  0  0  0  0  0  0
   -9.7806    1.4821   19.1786 N   0  0  0  0  0  0  0  0  0  0  0  0
  -11.0819    2.1133   20.8098 C   0  0  0  0  0  0  0  0  0  0  0  0
  1  4  1  0
  2  4  1  0
  2  6  1  0
  3  6  2  0
  5  7  1  0
  5 10  1  0
  6  8  1  0
  7  9  2  0
  8  9  1  0
  8 10  2  0
M  END
$$$$
