CypD-x0893-pandda-model
     RDKit          3D

 11 12  0  0  0  0  0  0  0  0999 V2000
  -12.4960    0.2630   21.2340 C   0  0  0  0  0  0  0  0  0  0  0  0
  -14.2060    4.4740   17.0140 N   0  0  0  0  0  0  0  0  0  0  0  0
  -13.5680    1.1860   21.2150 O   0  0  0  0  0  0  0  0  0  0  0  0
  -13.7340    2.0410   20.1800 C   0  0  0  0  0  0  0  0  0  0  0  0
  -12.7710    2.1810   19.2900 N   0  0  0  0  0  0  0  0  0  0  0  0
  -14.9700    2.7040   20.1350 C   0  0  0  0  0  0  0  0  0  0  0  0
  -15.2570    3.5650   19.1110 C   0  0  0  0  0  0  0  0  0  0  0  0
  -14.2510    3.7300   18.1660 C   0  0  0  0  0  0  0  0  0  0  0  0
  -12.9910    4.2650   16.4290 C   0  0  0  0  0  0  0  0  0  0  0  0
  -12.2640    3.4030   17.1850 C   0  0  0  0  0  0  0  0  0  0  0  0
  -13.0500    3.0430   18.2950 C   0  0  0  0  0  0  0  0  0  0  0  0
  1  3  1  0
  2  8  1  0
  2  9  1  0
  3  4  1  0
  4  5  1  0
  4  6  2  0
  5 11  2  0
  6  7  1  0
  7  8  2  0
  8 11  1  0
  9 10  2  0
 10 11  1  0
M  END
$$$$
