CypD-x0458-pandda-model
     RDKit          3D

 17 18  0  0  0  0  0  0  0  0999 V2000
  -11.3081    2.4707   18.8497 C   0  0  0  0  0  0  0  0  0  0  0  0
  -10.0561    1.9561   18.5768 N   0  0  0  0  0  0  0  0  0  0  0  0
  -11.9453    3.2772   17.9297 C   0  0  0  0  0  0  0  0  0  0  0  0
  -11.2581    1.3084   20.9758 N   0  0  0  0  0  0  0  0  0  0  0  0
  -13.2218    3.7677   18.1749 C   0  0  0  0  0  0  0  0  0  0  0  0
  -13.8404    3.4349   19.3776 C   0  0  0  0  0  0  0  0  0  0  0  0
  -13.1994    2.6283   20.3055 C   0  0  0  0  0  0  0  0  0  0  0  0
  -11.9307    2.1310   20.0577 C   0  0  0  0  0  0  0  0  0  0  0  0
  -11.9204    0.0976   21.5371 C   0  0  0  0  0  0  0  0  0  0  0  0
  -10.9925   -0.6364   22.5219 C   0  0  0  0  0  0  0  0  0  0  0  0
   -9.5118   -0.5043   22.1253 C   0  0  0  0  0  0  0  0  0  0  0  0
   -9.0796    0.9765   22.0708 C   0  0  0  0  0  0  0  0  0  0  0  0
  -10.2443    1.9516   21.8507 C   0  0  0  0  0  0  0  0  0  0  0  0
  -13.9005    4.6356   17.1102 C   0  0  0  0  0  0  0  0  0  0  0  0
  -13.7202    4.1354   15.8983 F   0  0  0  0  0  0  0  0  0  0  0  0
  -13.4168    5.8688   17.0850 F   0  0  0  0  0  0  0  0  0  0  0  0
  -15.2117    4.7588   17.2866 F   0  0  0  0  0  0  0  0  0  0  0  0
  1  2  1  0
  1  3  2  0
  1  8  1  0
  3  5  1  0
  4  8  1  0
  4  9  1  0
  4 13  1  0
  5  6  2  0
  5 14  1  0
  6  7  1  0
  7  8  2  0
  9 10  1  0
 10 11  1  0
 11 12  1  0
 12 13  1  0
 14 15  1  0
 14 16  1  0
 14 17  1  0
M  END
$$$$
