CypD-x0132-pandda-model
     RDKit          3D

 15 16  0  0  0  0  0  0  0  0999 V2000
   -9.5705   -0.2640   21.4021 C   0  0  0  0  0  0  0  0  0  0  0  0
  -10.5969    0.2307   20.4414 N   0  0  0  0  0  0  0  0  0  0  0  0
   -9.3088    1.8941   19.6820 O   0  0  0  0  0  0  0  0  0  0  0  0
  -11.7934   -0.6444   20.3080 C   0  0  0  0  0  0  0  0  0  0  0  0
  -12.7685    1.9784   19.4582 O   0  0  0  0  0  0  0  0  0  0  0  0
  -10.4240    1.4066   19.7309 C   0  0  0  0  0  0  0  0  0  0  0  0
  -11.4985    2.0980   19.0466 C   0  0  0  0  0  0  0  0  0  0  0  0
  -11.4497    2.9589   17.9974 C   0  0  0  0  0  0  0  0  0  0  0  0
  -12.7512    3.4254   17.7638 C   0  0  0  0  0  0  0  0  0  0  0  0
  -13.3516    4.3351   16.8867 C   0  0  0  0  0  0  0  0  0  0  0  0
  -14.7154    4.5429   16.9550 C   0  0  0  0  0  0  0  0  0  0  0  0
  -15.5041    3.8445   17.8731 C   0  0  0  0  0  0  0  0  0  0  0  0
  -14.8984    2.9646   18.7395 C   0  0  0  0  0  0  0  0  0  0  0  0
  -13.5267    2.7617   18.6948 C   0  0  0  0  0  0  0  0  0  0  0  0
  -15.6239    2.3156   19.6149 F   0  0  0  0  0  0  0  0  0  0  0  0
  1  2  1  0
  2  4  1  0
  2  6  1  0
  3  6  2  0
  5  7  1  0
  5 14  1  0
  6  7  1  0
  7  8  2  0
  8  9  1  0
  9 10  1  0
  9 14  2  0
 10 11  2  0
 11 12  1  0
 12 13  2  0
 13 14  1  0
 13 15  1  0
M  END
$$$$
