CypD-x0954-pandda-model
     RDKit          3D

 14 16  0  0  1  0  0  0  0  0999 V2000
  -12.6874    3.3407   16.4748 C   0  0  0  0  0  0  0  0  0  0  0  0
  -11.9329    2.2349   16.2227 N   0  0  0  0  0  0  0  0  0  0  0  0
  -12.5644    4.4998   16.1793 O   0  0  0  0  0  0  0  0  0  0  0  0
  -12.5669    1.4866   17.3764 C   0  0  1  0  0  0  0  0  0  0  0  0
   -9.8281    2.3181   19.8488 N   0  0  0  0  0  0  0  0  0  0  0  0
  -11.6686    1.4016   18.6009 C   0  0  0  0  0  0  0  0  0  0  0  0
  -11.8459    0.3896   19.5238 C   0  0  0  0  0  0  0  0  0  0  0  0
  -10.9983    0.3727   20.6106 C   0  0  0  0  0  0  0  0  0  0  0  0
  -10.0203    1.3463   20.7253 C   0  0  0  0  0  0  0  0  0  0  0  0
  -10.6605    2.3271   18.8227 C   0  0  0  0  0  0  0  0  0  0  0  0
  -13.6234    2.5919   17.4041 C   0  0  0  0  0  0  0  0  0  0  0  0
  -15.0630    2.3217   16.9374 C   0  0  0  0  0  0  0  0  0  0  0  0
  -15.4486    3.5630   17.7955 C   0  0  0  0  0  0  0  0  0  0  0  0
  -14.1714    3.3126   18.6528 C   0  0  0  0  0  0  0  0  0  0  0  0
  1  2  1  0
  1  3  2  0
  1 11  1  0
  2  4  1  0
  4  6  1  1
  4 11  1  0
  5  9  2  0
  5 10  1  0
  6  7  1  0
  6 10  2  0
  7  8  2  0
  8  9  1  0
 11 12  1  0
 11 14  1  0
 12 13  1  0
 13 14  1  0
M  END
$$$$
