CypD-x0523-pandda-model
     RDKit          3D

 15 15  0  0  0  0  0  0  0  0999 V2000
  -15.9813    3.3641   21.3444 C   0  0  0  0  0  0  0  0  0  0  0  0
  -13.7008    3.4412   20.5532 N   0  0  0  0  0  0  0  0  0  0  0  0
  -10.2042    2.7102   19.6715 O   0  0  0  0  0  0  0  0  0  0  0  0
  -14.6651    4.1306   21.4117 C   0  0  0  0  0  0  0  0  0  0  0  0
  -14.1287    4.6555   18.6451 N   0  0  0  0  0  0  0  0  0  0  0  0
  -14.1166    4.1416   22.8322 C   0  0  0  0  0  0  0  0  0  0  0  0
  -11.7173    1.0689   19.8607 N   0  0  0  0  0  0  0  0  0  0  0  0
  -13.3448    3.7700   19.2627 C   0  0  0  0  0  0  0  0  0  0  0  0
  -13.8131    4.9428   17.3962 C   0  0  0  0  0  0  0  0  0  0  0  0
  -12.7605    4.3825   16.7000 C   0  0  0  0  0  0  0  0  0  0  0  0
  -11.9383    3.4867   17.3414 C   0  0  0  0  0  0  0  0  0  0  0  0
  -12.2134    3.1808   18.6651 C   0  0  0  0  0  0  0  0  0  0  0  0
  -11.3323    2.3172   19.4107 C   0  0  0  0  0  0  0  0  0  0  0  0
  -10.8309    0.2457   20.7350 C   0  0  0  0  0  0  0  0  0  0  0  0
  -13.0110    0.4190   19.5002 C   0  0  0  0  0  0  0  0  0  0  0  0
  1  4  1  0
  2  4  1  0
  2  8  1  0
  3 13  2  0
  4  6  1  0
  5  8  2  0
  5  9  1  0
  7 13  1  0
  7 14  1  0
  7 15  1  0
  8 12  1  0
  9 10  2  0
 10 11  1  0
 11 12  2  0
 12 13  1  0
M  END
$$$$
