CypD-x0826-pandda-model
     RDKit          3D

 14 15  0  0  1  0  0  0  0  0999 V2000
   -8.5600   -1.4160   21.9430 C   0  0  0  0  0  0  0  0  0  0  0  0
   -9.1350    0.3160   23.5280 N   0  0  0  0  0  0  0  0  0  0  0  0
   -9.6550   -0.4630   22.4030 C   0  0  1  0  0  0  0  0  0  0  0  0
  -11.2310    1.5690   19.8070 N   0  0  0  0  0  0  0  0  0  0  0  0
  -10.1130    0.4800   21.2870 C   0  0  0  0  0  0  0  0  0  0  0  0
   -9.9580    2.0200   19.8380 N   0  0  0  0  0  0  0  0  0  0  0  0
  -11.3270    0.5870   20.7230 C   0  0  0  0  0  0  0  0  0  0  0  0
   -9.2890    1.3720   20.7240 N   0  0  0  0  0  0  0  0  0  0  0  0
  -12.2690    2.1360   19.0070 C   0  0  0  0  0  0  0  0  0  0  0  0
  -11.9780    2.7450   17.7880 C   0  0  0  0  0  0  0  0  0  0  0  0
  -12.9760    3.3080   17.0140 C   0  0  0  0  0  0  0  0  0  0  0  0
  -14.2900    3.2670   17.4440 C   0  0  0  0  0  0  0  0  0  0  0  0
  -14.6000    2.6650   18.6490 C   0  0  0  0  0  0  0  0  0  0  0  0
  -13.5990    2.1070   19.4250 C   0  0  0  0  0  0  0  0  0  0  0  0
  3  1  1  6
  2  3  1  0
  3  5  1  0
  4  6  1  0
  4  7  1  0
  4  9  1  0
  5  7  2  0
  5  8  1  0
  6  8  2  0
  9 10  2  0
  9 14  1  0
 10 11  1  0
 11 12  2  0
 12 13  1  0
 13 14  2  0
M  CHG  1   2   1
M  END
$$$$
