CypD-x0688-pandda-model
     RDKit          3D

 18 19  0  0  0  0  0  0  0  0999 V2000
  -13.0220    0.1080   19.1180 C   0  0  0  0  0  0  0  0  0  0  0  0
  -11.7390    0.7900   19.4470 N   0  0  0  0  0  0  0  0  0  0  0  0
  -10.2570    2.4320   19.0820 O   0  0  0  0  0  0  0  0  0  0  0  0
  -10.8160    0.0110   20.3240 C   0  0  0  0  0  0  0  0  0  0  0  0
  -12.4540    1.8500   22.8050 N   0  0  0  0  0  0  0  0  0  0  0  0
  -11.2930   -0.0230   21.7830 C   0  0  0  0  0  0  0  0  0  0  0  0
  -11.2810    1.3410   22.4540 C   0  0  0  0  0  0  0  0  0  0  0  0
  -10.0680    1.9670   22.6950 C   0  0  0  0  0  0  0  0  0  0  0  0
  -10.0430    3.1900   23.3260 C   0  0  0  0  0  0  0  0  0  0  0  0
  -11.2590    3.7370   23.6750 C   0  0  0  0  0  0  0  0  0  0  0  0
  -12.4180    3.0360   23.3910 C   0  0  0  0  0  0  0  0  0  0  0  0
  -11.4040    2.0390   18.9640 C   0  0  0  0  0  0  0  0  0  0  0  0
  -12.3760    2.9080   18.3240 C   0  0  0  0  0  0  0  0  0  0  0  0
  -13.5800    3.2430   18.9460 C   0  0  0  0  0  0  0  0  0  0  0  0
  -14.4860    4.1010   18.3480 C   0  0  0  0  0  0  0  0  0  0  0  0
  -14.2020    4.6490   17.1090 C   0  0  0  0  0  0  0  0  0  0  0  0
  -13.0210    4.3260   16.4690 C   0  0  0  0  0  0  0  0  0  0  0  0
  -12.1240    3.4650   17.0720 C   0  0  0  0  0  0  0  0  0  0  0  0
  1  2  1  0
  2  4  1  0
  2 12  1  0
  3 12  2  0
  4  6  1  0
  5  7  2  0
  5 11  1  0
  6  7  1  0
  7  8  1  0
  8  9  2  0
  9 10  1  0
 10 11  2  0
 12 13  1  0
 13 14  2  0
 13 18  1  0
 14 15  1  0
 15 16  2  0
 16 17  1  0
 17 18  2  0
M  END
$$$$
