CypD-x0688-pandda-model
     RDKit          3D

 18 19  0  0  0  0  0  0  0  0999 V2000
  -12.8660    0.0866   19.0237 C   0  0  0  0  0  0  0  0  0  0  0  0
  -11.5914    0.7756   19.3717 N   0  0  0  0  0  0  0  0  0  0  0  0
  -10.1450    2.4624   19.0647 O   0  0  0  0  0  0  0  0  0  0  0  0
  -10.7309    0.0647   20.3599 C   0  0  0  0  0  0  0  0  0  0  0  0
  -12.8953    1.7850   22.4305 N   0  0  0  0  0  0  0  0  0  0  0  0
  -11.3782    0.0155   21.7490 C   0  0  0  0  0  0  0  0  0  0  0  0
  -11.6312    1.3900   22.3451 C   0  0  0  0  0  0  0  0  0  0  0  0
  -10.5519    2.1369   22.7935 C   0  0  0  0  0  0  0  0  0  0  0  0
  -10.7662    3.3580   23.3910 C   0  0  0  0  0  0  0  0  0  0  0  0
  -12.0749    3.7748   23.4976 C   0  0  0  0  0  0  0  0  0  0  0  0
  -13.0832    2.9640   23.0039 C   0  0  0  0  0  0  0  0  0  0  0  0
  -11.2769    2.0403   18.9173 C   0  0  0  0  0  0  0  0  0  0  0  0
  -12.2653    2.8813   18.2712 C   0  0  0  0  0  0  0  0  0  0  0  0
  -12.0421    3.4225   17.0063 C   0  0  0  0  0  0  0  0  0  0  0  0
  -12.9842    4.2246   16.3884 C   0  0  0  0  0  0  0  0  0  0  0  0
  -14.1788    4.5004   17.0251 C   0  0  0  0  0  0  0  0  0  0  0  0
  -14.4234    3.9743   18.2795 C   0  0  0  0  0  0  0  0  0  0  0  0
  -13.4735    3.1838   18.8979 C   0  0  0  0  0  0  0  0  0  0  0  0
  1  2  1  0
  2  4  1  0
  2 12  1  0
  3 12  2  0
  4  6  1  0
  5  7  2  0
  5 11  1  0
  6  7  1  0
  7  8  1  0
  8  9  2  0
  9 10  1  0
 10 11  2  0
 12 13  1  0
 13 14  2  0
 13 18  1  0
 14 15  1  0
 15 16  2  0
 16 17  1  0
 17 18  2  0
M  END
$$$$
