CypD-x0148-pandda-model
     RDKit          3D

 11 11  0  0  0  0  0  0  0  0999 V2000
  -24.2850   -1.0150   10.0590 C   0  0  0  0  0  0  0  0  0  0  0  0
  -21.5280   -1.1940    9.6080 N   0  0  0  0  0  0  0  0  0  0  0  0
  -23.0420    0.1260    8.0620 O   0  0  0  0  0  0  0  0  0  0  0  0
  -23.0260   -1.1130    8.8070 S   0  0  0  0  0  0  0  0  0  0  0  0
  -21.3610   -2.3260   10.5240 C   0  0  0  0  0  0  0  0  0  0  0  0
  -23.1620   -2.3680    8.1030 O   0  0  0  0  0  0  0  0  0  0  0  0
  -19.8750   -2.5190   10.8670 C   0  0  0  0  0  0  0  0  0  0  0  0
  -17.8950   -1.3640   11.5440 O   0  0  0  0  0  0  0  0  0  0  0  0
  -19.2610   -1.2140   11.3810 C   0  0  0  0  0  0  0  0  0  0  0  0
  -19.5120   -0.0940   10.3840 C   0  0  0  0  0  0  0  0  0  0  0  0
  -21.0230    0.0580   10.1750 C   0  0  0  0  0  0  0  0  0  0  0  0
  1  4  1  0
  2  4  1  0
  2  5  1  0
  2 11  1  0
  3  4  2  0
  4  6  2  0
  5  7  1  0
  7  9  1  0
  8  9  1  0
  9 10  1  0
 10 11  1  0
M  END
$$$$
