CypD-x0917-pandda-model
     RDKit          3D

 15 16  0  0  1  0  0  0  0  0999 V2000
  -19.1710   -0.4950   14.7410 C   0  0  0  0  0  0  0  0  0  0  0  0
  -20.8100    3.1330   18.0450 N   0  0  0  0  0  0  0  0  0  0  0  0
  -16.8520    2.4400   17.0620 O   0  0  0  0  0  0  0  0  0  0  0  0
  -19.2690   -0.1520   16.2340 C   0  0  1  0  0  0  0  0  0  0  0  0
  -18.5530    1.1140   16.5000 N   0  0  0  0  0  0  0  0  0  0  0  0
  -20.7030    0.1780   16.6220 C   0  0  0  0  0  0  0  0  0  0  0  0
  -20.8910    1.6340   16.1850 C   0  0  1  0  0  0  0  0  0  0  0  0
  -21.7610    2.4600   17.1340 C   0  0  0  0  0  0  0  0  0  0  0  0
  -19.5590    3.3410   17.2840 C   0  0  0  0  0  0  0  0  0  0  0  0
  -19.4900    2.2470   16.2050 C   0  0  1  0  0  0  0  0  0  0  0  0
  -17.2550    1.3000   16.9350 C   0  0  0  0  0  0  0  0  0  0  0  0
  -16.2720    0.1530   17.3540 C   0  0  0  0  0  0  0  0  0  0  0  0
  -14.8480    0.7080   17.6100 C   0  0  0  0  0  0  0  0  0  0  0  0
  -16.0960   -0.9510   16.2900 C   0  0  0  0  0  0  0  0  0  0  0  0
  -16.7310   -0.4900   18.6790 C   0  0  0  0  0  0  0  0  0  0  0  0
  4  1  1  6
  2  8  1  0
  2  9  1  0
  3 11  2  0
  4  5  1  0
  4  6  1  0
  5 10  1  0
  5 11  1  0
  7  6  1  1
  7  8  1  0
  7 10  1  0
 10  9  1  1
 11 12  1  0
 12 13  1  0
 12 14  1  0
 12 15  1  0
M  CHG  1   2   1
M  END
$$$$
