CypD-x0709-pandda-model
     RDKit          3D

 15 15  0  0  0  0  0  0  0  0999 V2000
  -14.6293   -2.6334   15.4513 C   0  0  0  0  0  0  0  0  0  0  0  0
  -15.0371   -1.0996   13.5393 N   0  0  0  0  0  0  0  0  0  0  0  0
  -13.6661   -2.8184   13.3238 O   0  0  0  0  0  0  0  0  0  0  0  0
  -14.1276    4.2892   17.7184 S   0  0  0  0  0  0  0  0  0  0  0  0
  -14.4107   -2.1874   14.0255 C   0  0  0  0  0  0  0  0  0  0  0  0
  -14.3716    3.8220   19.2928 N   0  0  0  0  0  0  0  0  0  0  0  0
  -15.0347    5.3978   17.5377 O   0  0  0  0  0  0  0  0  0  0  0  0
  -16.1179   -0.3203   14.1659 C   0  0  0  0  0  0  0  0  0  0  0  0
  -12.7027    4.4989   17.6750 O   0  0  0  0  0  0  0  0  0  0  0  0
  -15.5708    0.7726   15.0810 C   0  0  0  0  0  0  0  0  0  0  0  0
  -14.4642    1.5222   14.7202 C   0  0  0  0  0  0  0  0  0  0  0  0
  -14.0024    2.5426   15.5344 C   0  0  0  0  0  0  0  0  0  0  0  0
  -14.6473    2.8616   16.7240 C   0  0  0  0  0  0  0  0  0  0  0  0
  -15.7398    2.0846   17.0890 C   0  0  0  0  0  0  0  0  0  0  0  0
  -16.1938    1.0511   16.2869 C   0  0  0  0  0  0  0  0  0  0  0  0
  1  5  1  0
  2  5  1  0
  2  8  1  0
  3  5  2  0
  4  6  1  0
  4  7  2  0
  4  9  2  0
  4 13  1  0
  8 10  1  0
 10 11  2  0
 10 15  1  0
 11 12  1  0
 12 13  2  0
 13 14  1  0
 14 15  2  0
M  END
$$$$
