CypD-x0334-pandda-model
     RDKit          3D

 14 14  0  0  0  0  0  0  0  0999 V2000
  -13.2730    1.2190   22.1900 C   0  0  0  0  0  0  0  0  0  0  0  0
  -13.5320    2.3750   20.0540 N   0  0  0  0  0  0  0  0  0  0  0  0
  -11.6950    1.0970   20.4670 O   0  0  0  0  0  0  0  0  0  0  0  0
  -12.7600    1.5500   20.8130 C   0  0  0  0  0  0  0  0  0  0  0  0
  -15.4030    4.2760   20.4920 O   0  0  0  0  0  0  0  0  0  0  0  0
  -13.3950    2.9660   18.7930 C   0  0  0  0  0  0  0  0  0  0  0  0
  -16.5950    4.4790   18.7830 O   0  0  0  0  0  0  0  0  0  0  0  0
  -12.3710    2.6180   17.9130 C   0  0  0  0  0  0  0  0  0  0  0  0
  -12.2100    3.2660   16.7030 C   0  0  0  0  0  0  0  0  0  0  0  0
  -13.0680    4.2930   16.3610 C   0  0  0  0  0  0  0  0  0  0  0  0
  -14.0860    4.6240   17.2300 C   0  0  0  0  0  0  0  0  0  0  0  0
  -14.3200    3.9570   18.4290 C   0  0  0  0  0  0  0  0  0  0  0  0
  -15.4670    4.2600   19.2500 C   0  0  0  0  0  0  0  0  0  0  0  0
  -14.8310    5.6420   16.8960 F   0  0  0  0  0  0  0  0  0  0  0  0
  1  4  1  0
  2  4  1  0
  2  6  1  0
  3  4  2  0
  5 13  1  0
  6  8  2  0
  6 12  1  0
  7 13  2  0
  8  9  1  0
  9 10  2  0
 10 11  1  0
 11 12  2  0
 11 14  1  0
 12 13  1  0
M  CHG  1   5  -1
M  END
$$$$
