CypD-x0945-pandda-model
     RDKit          3D

 12 13  0  0  0  0  0  0  0  0999 V2000
  -17.5087    0.6756   12.8493 C   0  0  0  0  0  0  0  0  0  0  0  0
  -18.6267    0.8912   13.7853 N   0  0  0  0  0  0  0  0  0  0  0  0
  -18.8191   -0.0244   14.7783 C   0  0  0  0  0  0  0  0  0  0  0  0
  -17.8497   -0.0667   15.6515 N   0  0  0  0  0  0  0  0  0  0  0  0
  -17.9304   -1.0430   16.5687 C   0  0  0  0  0  0  0  0  0  0  0  0
  -18.9720   -1.9175   16.6743 C   0  0  0  0  0  0  0  0  0  0  0  0
  -20.0617   -1.8344   15.7925 C   0  0  0  0  0  0  0  0  0  0  0  0
  -21.1865   -2.6770   15.8516 C   0  0  0  0  0  0  0  0  0  0  0  0
  -22.2179   -2.5331   14.9628 C   0  0  0  0  0  0  0  0  0  0  0  0
  -22.1589   -1.5416   13.9807 C   0  0  0  0  0  0  0  0  0  0  0  0
  -21.0680   -0.7165   13.9049 C   0  0  0  0  0  0  0  0  0  0  0  0
  -19.9884   -0.8391   14.8049 C   0  0  0  0  0  0  0  0  0  0  0  0
  1  2  1  0
  2  3  1  0
  3  4  2  0
  3 12  1  0
  4  5  1  0
  5  6  2  0
  6  7  1  0
  7  8  1  0
  7 12  2  0
  8  9  2  0
  9 10  1  0
 10 11  2  0
 11 12  1  0
M  END
$$$$
