CypD-x0194-pandda-model
     RDKit          3D

 13 14  0  0  0  0  0  0  0  0999 V2000
  -13.0470   -2.4710   19.2320 C   0  0  0  0  0  0  0  0  0  0  0  0
  -13.8610   -0.1990   19.3340 N   0  0  0  0  0  0  0  0  0  0  0  0
  -12.6990   -1.0400   19.6190 C   0  0  0  0  0  0  0  0  0  0  0  0
  -12.8310    1.6450   18.2620 N   0  0  0  0  0  0  0  0  0  0  0  0
  -12.3890   -0.9290   21.1060 C   0  0  0  0  0  0  0  0  0  0  0  0
  -14.9820    1.6920   18.5540 N   0  0  0  0  0  0  0  0  0  0  0  0
  -13.8780    0.9800   18.7340 C   0  0  0  0  0  0  0  0  0  0  0  0
  -13.2730    2.8410   17.7310 C   0  0  0  0  0  0  0  0  0  0  0  0
  -12.6200    3.8840   17.0880 C   0  0  0  0  0  0  0  0  0  0  0  0
  -13.3630    4.9900   16.7190 C   0  0  0  0  0  0  0  0  0  0  0  0
  -14.7300    5.0580   16.9950 C   0  0  0  0  0  0  0  0  0  0  0  0
  -15.3780    4.0080   17.6120 C   0  0  0  0  0  0  0  0  0  0  0  0
  -14.6360    2.8880   17.9550 C   0  0  0  0  0  0  0  0  0  0  0  0
  1  3  1  0
  2  3  1  0
  2  7  1  0
  3  5  1  0
  4  7  1  0
  4  8  1  0
  6  7  2  0
  6 13  1  0
  8  9  2  0
  8 13  1  0
  9 10  1  0
 10 11  2  0
 11 12  1  0
 12 13  2  0
M  CHG  1   6   1
M  END
$$$$
