CypD-x0229-pandda-model
     RDKit          3D

 12 12  0  0  0  0  0  0  0  0999 V2000
  -22.4162   -2.2705   16.4628 C   0  0  0  0  0  0  0  0  0  0  0  0
  -20.9152   -0.2986   16.7809 N   0  0  0  0  0  0  0  0  0  0  0  0
  -23.1697   -0.0973   16.8056 O   0  0  0  0  0  0  0  0  0  0  0  0
  -22.1900   -0.7951   16.6970 C   0  0  0  0  0  0  0  0  0  0  0  0
  -17.3796    2.7804   17.7589 N   0  0  0  0  0  0  0  0  0  0  0  0
  -15.9385    1.3086   16.9718 O   0  0  0  0  0  0  0  0  0  0  0  0
  -20.6861    1.1775   16.8700 C   0  0  0  0  0  0  0  0  0  0  0  0
  -19.4733    1.5756   16.0219 C   0  0  0  0  0  0  0  0  0  0  0  0
  -18.1787    0.8170   16.4160 C   0  0  0  0  0  0  0  0  0  0  0  0
  -18.4745   -0.4137   17.2927 C   0  0  0  0  0  0  0  0  0  0  0  0
  -19.7064   -1.1731   16.7932 C   0  0  0  0  0  0  0  0  0  0  0  0
  -17.0871    1.6686   17.0656 C   0  0  0  0  0  0  0  0  0  0  0  0
  1  4  1  0
  2  4  1  0
  2  7  1  0
  2 11  1  0
  3  4  2  0
  5 12  1  0
  6 12  2  0
  7  8  1  0
  8  9  1  0
  9 10  1  0
  9 12  1  0
 10 11  1  0
M  END
$$$$
