CypD-x0568-pandda-model
     RDKit          3D

  9  9  0  0  0  0  0  0  0  0999 V2000
  -15.0914    4.6624   21.8887 C   0  0  0  0  0  0  0  0  0  0  0  0
  -13.0539    2.1333   20.1044 N   0  0  0  0  0  0  0  0  0  0  0  0
  -15.8262    4.1380   20.8219 O   0  0  0  0  0  0  0  0  0  0  0  0
  -13.9111    3.6323   18.2724 S   0  0  0  0  0  0  0  0  0  0  0  0
  -15.4636    2.8283   20.4522 C   0  0  0  0  0  0  0  0  0  0  0  0
  -12.0229    2.2509   19.2160 N   0  0  0  0  0  0  0  0  0  0  0  0
  -14.1063    2.7674   19.7605 C   0  0  0  0  0  0  0  0  0  0  0  0
  -11.5218    3.3120   17.1450 N   0  0  0  0  0  0  0  0  0  0  0  0
  -12.3052    2.9875   18.2036 C   0  0  0  0  0  0  0  0  0  0  0  0
  1  3  1  0
  2  6  1  0
  2  7  2  0
  3  5  1  0
  4  7  1  0
  4  9  1  0
  5  7  1  0
  6  9  2  0
  8  9  1  0
M  END
$$$$
