CypD-x0456-pandda-model
     RDKit          3D

 14 15  0  0  0  0  0  0  0  0999 V2000
  -12.2910    3.4977   24.1804 C   0  0  0  0  0  0  0  0  0  0  0  0
  -14.0406    2.6843   20.3527 N   0  0  0  0  0  0  0  0  0  0  0  0
  -13.0333    4.0728   25.1962 O   0  0  0  0  0  0  0  0  0  0  0  0
  -13.2310    2.8552   23.1484 C   0  0  0  0  0  0  0  0  0  0  0  0
  -14.7655    3.9199   18.5357 N   0  0  0  0  0  0  0  0  0  0  0  0
  -12.3968    2.1262   22.0774 C   0  0  0  0  0  0  0  0  0  0  0  0
  -12.6752    2.7973   18.4875 N   0  0  0  0  0  0  0  0  0  0  0  0
  -13.2707    1.5648   20.9535 C   0  0  0  0  0  0  0  0  0  0  0  0
  -14.9693    3.3189   21.3263 C   0  0  0  0  0  0  0  0  0  0  0  0
  -14.1711    3.8931   22.4989 C   0  0  0  0  0  0  0  0  0  0  0  0
  -13.8178    3.1546   19.0761 C   0  0  0  0  0  0  0  0  0  0  0  0
  -14.5461    4.3397   17.3099 C   0  0  0  0  0  0  0  0  0  0  0  0
  -13.4017    4.0236   16.6216 C   0  0  0  0  0  0  0  0  0  0  0  0
  -12.4813    3.2348   17.2640 C   0  0  0  0  0  0  0  0  0  0  0  0
  1  3  1  0
  1  4  1  0
  2  8  1  0
  2  9  1  0
  2 11  1  0
  4  6  1  0
  4 10  1  0
  5 11  2  0
  5 12  1  0
  6  8  1  0
  7 11  1  0
  7 14  2  0
  9 10  1  0
 12 13  2  0
 13 14  1  0
M  END
$$$$
