CypD-x0776-pandda-model
     RDKit          3D

 16 17  0  0  0  0  0  0  0  0999 V2000
  -14.9410    4.8650   16.8340 C   0  0  0  0  0  0  0  0  0  0  0  0
  -14.3900    3.4960   16.6540 N   0  0  0  0  0  0  0  0  0  0  0  0
  -10.3540    2.4320   19.3630 O   0  0  0  0  0  0  0  0  0  0  0  0
  -14.7050    2.6320   17.8420 C   0  0  0  0  0  0  0  0  0  0  0  0
  -12.2750    2.1790   18.2630 N   0  0  0  0  0  0  0  0  0  0  0  0
  -13.6330    1.5630   18.1210 C   0  0  0  0  0  0  0  0  0  0  0  0
  -11.4380    0.4780   19.6800 N   0  0  0  0  0  0  0  0  0  0  0  0
  -12.0020    3.3930   17.4340 C   0  0  0  0  0  0  0  0  0  0  0  0
  -12.9470    3.4950   16.2340 C   0  0  0  0  0  0  0  0  0  0  0  0
  -11.3110    1.7190   19.1220 C   0  0  0  0  0  0  0  0  0  0  0  0
  -10.7350   -0.1480   20.7190 C   0  0  0  0  0  0  0  0  0  0  0  0
  -10.7740   -1.5350   20.8120 C   0  0  0  0  0  0  0  0  0  0  0  0
  -10.1530   -2.2010   21.8530 C   0  0  0  0  0  0  0  0  0  0  0  0
   -9.4730   -1.4840   22.8210 C   0  0  0  0  0  0  0  0  0  0  0  0
   -9.4050   -0.1060   22.7320 C   0  0  0  0  0  0  0  0  0  0  0  0
  -10.0290    0.5560   21.6900 C   0  0  0  0  0  0  0  0  0  0  0  0
  1  2  1  0
  2  4  1  0
  2  9  1  0
  3 10  2  0
  4  6  1  0
  5  6  1  0
  5  8  1  0
  5 10  1  0
  7 10  1  0
  7 11  1  0
  8  9  1  0
 11 12  2  0
 11 16  1  0
 12 13  1  0
 13 14  2  0
 14 15  1  0
 15 16  2  0
M  CHG  1   2   1
M  END
$$$$
