CypD-x0090-pandda-model
     RDKit          3D

 12 12  0  0  0  0  0  0  0  0999 V2000
  -15.4510    0.5320   16.6690 C   0  0  0  0  0  0  0  0  0  0  0  0
  -17.3230    2.0880   16.9610 N   0  0  0  0  0  0  0  0  0  0  0  0
  -15.9120   -2.4960   15.1970 O   0  0  0  0  0  0  0  0  0  0  0  0
  -16.8940    0.9590   16.4870 C   0  0  0  0  0  0  0  0  0  0  0  0
  -18.6350    2.1230   16.6430 N   0  0  0  0  0  0  0  0  0  0  0  0
  -19.5020    3.2250   17.0830 C   0  0  0  0  0  0  0  0  0  0  0  0
  -17.1100   -2.5380   17.0580 N   0  0  0  0  0  0  0  0  0  0  0  0
  -18.9990    1.0270   15.9410 C   0  0  0  0  0  0  0  0  0  0  0  0
  -20.4110    0.7960   15.4100 C   0  0  0  0  0  0  0  0  0  0  0  0
  -17.9020    0.2430   15.8370 C   0  0  0  0  0  0  0  0  0  0  0  0
  -17.8320   -1.1220   15.1520 C   0  0  0  0  0  0  0  0  0  0  0  0
  -16.8780   -2.1050   15.8050 C   0  0  0  0  0  0  0  0  0  0  0  0
  1  4  1  0
  2  4  2  0
  2  5  1  0
  3 12  2  0
  4 10  1  0
  5  6  1  0
  5  8  1  0
  7 12  1  0
  8  9  1  0
  8 10  2  0
 10 11  1  0
 11 12  1  0
M  END
$$$$
