CypD-x0673-pandda-model
     RDKit          3D

 15 16  0  0  1  0  0  0  0  0999 V2000
  -15.2050    6.2378   23.1903 C   0  0  0  0  0  0  0  0  0  0  0  0
  -14.0430    2.7861   21.8470 N   0  0  1  0  0  0  0  0  0  0  0  0
  -16.5663    6.1440   22.9120 O   0  0  0  0  0  0  0  0  0  0  0  0
  -14.5589    4.8490   23.1972 C   0  0  2  0  0  0  0  0  0  0  0  0
  -13.1880    4.9993   23.4437 O   0  0  0  0  0  0  0  0  0  0  0  0
  -14.7595    4.1114   21.8578 C   0  0  0  0  0  0  0  0  0  0  0  0
  -14.2347    2.0469   20.5614 C   0  0  0  0  0  0  0  0  0  0  0  0
  -13.5483    2.7109   19.3760 C   0  0  0  0  0  0  0  0  0  0  0  0
  -14.1953    3.6930   18.6363 C   0  0  0  0  0  0  0  0  0  0  0  0
  -13.5948    4.2499   17.5223 C   0  0  0  0  0  0  0  0  0  0  0  0
  -12.3417    3.8210   17.1300 C   0  0  0  0  0  0  0  0  0  0  0  0
  -11.6872    2.8454   17.8594 C   0  0  0  0  0  0  0  0  0  0  0  0
  -12.2839    2.2947   18.9802 C   0  0  0  0  0  0  0  0  0  0  0  0
  -12.5943    2.9894   22.2059 C   0  0  0  0  0  0  0  0  0  0  0  0
  -12.4467    3.8111   23.5041 C   0  0  0  0  0  0  0  0  0  0  0  0
  1  3  1  0
  4  1  1  6
  2  6  1  0
  2  7  1  6
  2 14  1  0
  4  5  1  0
  4  6  1  0
  5 15  1  0
  7  8  1  0
  8  9  2  0
  8 13  1  0
  9 10  1  0
 10 11  2  0
 11 12  1  0
 12 13  2  0
 14 15  1  0
M  CHG  1   2   1
M  END
$$$$
