CypD-x0889-pandda-model
     RDKit          3D

 10 11  0  0  0  0  0  0  0  0999 V2000
   -9.7890    1.7320   21.2310 C   0  0  0  0  0  0  0  0  0  0  0  0
  -12.7530    2.0420   19.1300 N   0  0  0  0  0  0  0  0  0  0  0  0
  -10.8620    1.9700   20.1900 C   0  0  0  0  0  0  0  0  0  0  0  0
  -10.5710    2.5640   19.0300 N   0  0  0  0  0  0  0  0  0  0  0  0
  -12.1730    1.6450   20.2740 C   0  0  0  0  0  0  0  0  0  0  0  0
  -14.0560    2.0210   18.6510 C   0  0  0  0  0  0  0  0  0  0  0  0
  -14.3430    2.5490   17.4300 C   0  0  0  0  0  0  0  0  0  0  0  0
  -13.3020    3.1170   16.6480 C   0  0  0  0  0  0  0  0  0  0  0  0
  -12.0250    3.1300   17.1230 C   0  0  0  0  0  0  0  0  0  0  0  0
  -11.7260    2.5960   18.4020 C   0  0  0  0  0  0  0  0  0  0  0  0
  1  3  1  0
  2  5  1  0
  2  6  1  0
  2 10  1  0
  3  4  1  0
  3  5  2  0
  4 10  2  0
  6  7  2  0
  7  8  1  0
  8  9  2  0
  9 10  1  0
M  END
$$$$
