CypD-x0470-pandda-model
     RDKit          3D

 14 14  0  0  0  0  0  0  0  0999 V2000
  -11.4544    2.9645   17.5030 C   0  0  0  0  0  0  0  0  0  0  0  0
  -13.7289    2.2025   17.8775 N   0  0  0  0  0  0  0  0  0  0  0  0
  -12.0953    1.7820   19.4113 O   0  0  0  0  0  0  0  0  0  0  0  0
  -12.4573    2.2456   18.3563 C   0  0  0  0  0  0  0  0  0  0  0  0
  -18.5365    2.1712   17.8848 N   0  0  0  0  0  0  0  0  0  0  0  0
  -19.2740    3.1480   19.7619 O   0  0  0  0  0  0  0  0  0  0  0  0
  -14.9140    1.6725   18.4061 C   0  0  0  0  0  0  0  0  0  0  0  0
  -20.4297    3.5163   17.9253 N   0  0  0  0  0  0  0  0  0  0  0  0
  -14.9381    0.7443   19.4434 C   0  0  0  0  0  0  0  0  0  0  0  0
  -16.1393    0.2867   19.9537 C   0  0  0  0  0  0  0  0  0  0  0  0
  -17.3326    0.7523   19.4329 C   0  0  0  0  0  0  0  0  0  0  0  0
  -17.3336    1.6687   18.3888 C   0  0  0  0  0  0  0  0  0  0  0  0
  -19.4228    2.9294   18.5775 C   0  0  0  0  0  0  0  0  0  0  0  0
  -16.1220    2.1064   17.8776 C   0  0  0  0  0  0  0  0  0  0  0  0
  1  4  1  0
  2  4  1  0
  2  7  1  0
  3  4  2  0
  5 12  1  0
  5 13  1  0
  6 13  2  0
  7  9  2  0
  7 14  1  0
  8 13  1  0
  9 10  1  0
 10 11  2  0
 11 12  1  0
 12 14  2  0
M  END
$$$$
