CypD-x0313-pandda-model
     RDKit          3D

 15 16  0  0  1  0  0  0  0  0999 V2000
  -20.6140   -5.0900    8.1150 C   0  0  0  0  0  0  0  0  0  0  0  0
  -22.8410   -2.0340    8.9830 N   0  0  1  0  0  0  0  0  0  0  0  0
  -20.2810   -3.2200    9.4970 O   0  0  0  0  0  0  0  0  0  0  0  0
  -24.3600   -2.5350    5.9430 S   0  0  0  0  0  0  0  0  0  0  0  0
  -20.9770   -3.6280    8.3600 C   0  0  2  0  0  0  0  0  0  0  0  0
  -24.4230   -0.3910    7.3610 N   0  0  0  0  0  0  0  0  0  0  0  0
  -22.4900   -3.4400    8.5900 C   0  0  0  0  0  0  0  0  0  0  0  0
  -23.9040   -0.8710    6.0810 N   0  0  0  0  0  0  0  0  0  0  0  0
  -24.2960   -1.9250    9.3260 C   0  0  0  0  0  0  0  0  0  0  0  0
  -25.1570   -1.4330    8.1400 C   0  0  2  0  0  0  0  0  0  0  0  0
  -25.6410   -2.5230    7.1840 C   0  0  2  0  0  0  0  0  0  0  0  0
  -21.9590   -1.5350   10.0900 C   0  0  2  0  0  0  0  0  0  0  0  0
  -22.1320   -0.0240   10.2360 C   0  0  0  0  0  0  0  0  0  0  0  0
  -20.4660   -1.8770    9.8540 C   0  0  0  0  0  0  0  0  0  0  0  0
  -25.6700   -4.1320    7.8970 Cl  0  0  0  0  0  0  0  0  0  0  0  0
  5  1  1  1
  2  7  1  0
  2  9  1  1
  2 12  1  0
  3  5  1  0
  3 14  1  0
  4  8  1  0
  4 11  1  0
  5  7  1  0
  6  8  1  0
  6 10  1  0
 10  9  1  1
 10 11  1  0
 11 15  1  1
 12 13  1  6
 12 14  1  0
M  CHG  1   2   1
M  END
$$$$
