CypD-x0291-pandda-model
     RDKit          3D

 15 16  0  0  0  0  0  0  0  0999 V2000
  -14.4671    0.9141   16.3090 C   0  0  0  0  0  0  0  0  0  0  0  0
  -16.6229    0.4206   18.2980 N   0  0  0  0  0  0  0  0  0  0  0  0
  -16.8664    3.6781   21.4294 O   0  0  0  0  0  0  0  0  0  0  0  0
  -15.5497   -0.1423   16.1366 C   0  0  0  0  0  0  0  0  0  0  0  0
  -16.9063    0.9027   20.3685 N   0  0  0  0  0  0  0  0  0  0  0  0
  -17.4024    4.3619   19.5053 O   0  0  0  0  0  0  0  0  0  0  0  0
  -15.5422   -0.9071   14.9788 C   0  0  0  0  0  0  0  0  0  0  0  0
  -16.7224   -0.0696   19.5461 N   0  0  0  0  0  0  0  0  0  0  0  0
  -16.4835   -1.9020   14.7835 C   0  0  0  0  0  0  0  0  0  0  0  0
  -17.4391   -2.1442   15.7515 C   0  0  0  0  0  0  0  0  0  0  0  0
  -17.4584   -1.3831   16.9048 C   0  0  0  0  0  0  0  0  0  0  0  0
  -16.5288   -0.3659   17.1120 C   0  0  0  0  0  0  0  0  0  0  0  0
  -16.7685    1.7437   18.3687 C   0  0  0  0  0  0  0  0  0  0  0  0
  -16.9436    2.0625   19.6710 C   0  0  0  0  0  0  0  0  0  0  0  0
  -17.1127    3.3955   20.2406 C   0  0  0  0  0  0  0  0  0  0  0  0
  1  4  1  0
  2  8  1  0
  2 12  1  0
  2 13  1  0
  3 15  1  0
  4  7  2  0
  4 12  1  0
  5  8  2  0
  5 14  1  0
  6 15  2  0
  7  9  1  0
  9 10  2  0
 10 11  1  0
 11 12  2  0
 13 14  2  0
 14 15  1  0
M  CHG  1   3  -1
M  END
$$$$
