CypD-x0985-pandda-model
     RDKit          3D

 12 13  0  0  0  0  0  0  0  0999 V2000
  -11.3185   -0.8201   20.3965 C   0  0  0  0  0  0  0  0  0  0  0  0
  -12.7608   -0.5499   20.1487 N   0  0  0  0  0  0  0  0  0  0  0  0
  -13.3232    0.4368   19.4689 C   0  0  0  0  0  0  0  0  0  0  0  0
  -15.4464    1.8038   18.9092 N   0  0  0  0  0  0  0  0  0  0  0  0
  -14.8727    0.4911   19.3824 C   0  0  0  0  0  0  0  0  0  0  0  0
  -12.6184    1.3916   18.8843 N   0  0  0  0  0  0  0  0  0  0  0  0
  -14.5837    2.6722   18.2253 C   0  0  0  0  0  0  0  0  0  0  0  0
  -15.1252    3.7689   17.5733 C   0  0  0  0  0  0  0  0  0  0  0  0
  -14.3207    4.6236   16.8432 C   0  0  0  0  0  0  0  0  0  0  0  0
  -12.9609    4.3867   16.7468 C   0  0  0  0  0  0  0  0  0  0  0  0
  -12.3966    3.3080   17.4069 C   0  0  0  0  0  0  0  0  0  0  0  0
  -13.1919    2.4598   18.1616 C   0  0  0  0  0  0  0  0  0  0  0  0
  1  2  1  0
  2  3  2  0
  3  5  1  0
  3  6  1  0
  4  5  1  0
  4  7  1  0
  6 12  1  0
  7  8  1  0
  7 12  2  0
  8  9  2  0
  9 10  1  0
 10 11  2  0
 11 12  1  0
M  CHG  1   2   1
M  END
$$$$
