CypD-x0268-pandda-model
     RDKit          3D

 15 16  0  0  0  0  0  0  0  0999 V2000
  -18.2740    2.7160   17.1360 C   0  0  0  0  0  0  0  0  0  0  0  0
  -20.6910    3.2730   17.3290 N   0  0  0  0  0  0  0  0  0  0  0  0
  -19.7470    2.4160   17.0050 C   0  0  0  0  0  0  0  0  0  0  0  0
  -20.2910    1.2730   16.5990 N   0  0  0  0  0  0  0  0  0  0  0  0
  -21.9040    2.6850   17.1040 C   0  0  0  0  0  0  0  0  0  0  0  0
  -21.7090    0.3790   10.5870 N   0  0  0  0  0  0  0  0  0  0  0  0
  -21.6580    1.4410   16.6470 C   0  0  0  0  0  0  0  0  0  0  0  0
  -19.6010   -0.0080   16.2950 C   0  0  0  0  0  0  0  0  0  0  0  0
  -19.3900   -0.2990   14.8080 C   0  0  0  0  0  0  0  0  0  0  0  0
  -18.2580   -1.0130   14.4410 C   0  0  0  0  0  0  0  0  0  0  0  0
  -18.0350   -1.3560   13.1210 C   0  0  0  0  0  0  0  0  0  0  0  0
  -18.9390   -0.9780   12.1480 C   0  0  0  0  0  0  0  0  0  0  0  0
  -20.0810   -0.2600   12.4800 C   0  0  0  0  0  0  0  0  0  0  0  0
  -21.0070    0.1140   11.4460 C   0  0  0  0  0  0  0  0  0  0  0  0
  -20.2910    0.0740   13.8160 C   0  0  0  0  0  0  0  0  0  0  0  0
  1  3  1  0
  2  3  2  0
  2  5  1  0
  3  4  1  0
  4  7  1  0
  4  8  1  0
  5  7  2  0
  6 14  3  0
  8  9  1  0
  9 10  2  0
  9 15  1  0
 10 11  1  0
 11 12  2  0
 12 13  1  0
 13 14  1  0
 13 15  2  0
M  CHG  1   2   1
M  END
$$$$
