CypD-x0444-pandda-model
     RDKit          3D

 13 13  0  0  0  0  0  0  0  0999 V2000
  -13.0742    2.9751   22.2084 C   0  0  0  0  0  0  0  0  0  0  0  0
  -12.0514    1.5572   19.3822 N   0  0  0  0  0  0  0  0  0  0  0  0
  -12.3806    1.7689   22.1227 O   0  0  0  0  0  0  0  0  0  0  0  0
  -11.0603    1.8826   21.6369 C   0  0  0  0  0  0  0  0  0  0  0  0
  -10.0376    2.5117   19.5904 O   0  0  0  0  0  0  0  0  0  0  0  0
  -11.0043    2.0073   20.1122 C   0  0  0  0  0  0  0  0  0  0  0  0
  -12.2040    1.7114   17.9247 C   0  0  0  0  0  0  0  0  0  0  0  0
  -13.1312    2.8826   17.6587 C   0  0  0  0  0  0  0  0  0  0  0  0
  -14.4954    2.7680   17.8798 C   0  0  0  0  0  0  0  0  0  0  0  0
  -15.3337    3.8400   17.6291 C   0  0  0  0  0  0  0  0  0  0  0  0
  -14.8171    5.0327   17.1575 C   0  0  0  0  0  0  0  0  0  0  0  0
  -13.4577    5.1511   16.9326 C   0  0  0  0  0  0  0  0  0  0  0  0
  -12.6188    4.0799   17.1843 C   0  0  0  0  0  0  0  0  0  0  0  0
  1  3  1  0
  2  6  1  0
  2  7  1  0
  3  4  1  0
  4  6  1  0
  5  6  2  0
  7  8  1  0
  8  9  2  0
  8 13  1  0
  9 10  1  0
 10 11  2  0
 11 12  1  0
 12 13  2  0
M  END
$$$$
