CypD-x0417-pandda-model
     RDKit          3D

 13 13  0  0  0  0  0  0  0  0999 V2000
  -10.2840    1.5510   21.4490 C   0  0  0  0  0  0  0  0  0  0  0  0
  -12.8530    2.2320   19.4580 N   0  0  0  0  0  0  0  0  0  0  0  0
  -10.8400    2.9460   18.6520 O   0  0  0  0  0  0  0  0  0  0  0  0
  -10.7470    1.0830   20.0600 C   0  0  0  0  0  0  0  0  0  0  0  0
  -17.2770    4.2900   19.7540 N   0  0  0  0  0  0  0  0  0  0  0  0
  -11.4920    2.1720   19.3100 C   0  0  0  0  0  0  0  0  0  0  0  0
  -13.8240    3.1370   18.9790 C   0  0  0  0  0  0  0  0  0  0  0  0
  -13.5820    3.9140   17.8490 C   0  0  0  0  0  0  0  0  0  0  0  0
  -14.5250    4.8090   17.3880 C   0  0  0  0  0  0  0  0  0  0  0  0
  -15.7340    4.9240   18.0440 C   0  0  0  0  0  0  0  0  0  0  0  0
  -16.0250    4.1470   19.1550 C   0  0  0  0  0  0  0  0  0  0  0  0
  -15.0560    3.2580   19.6350 C   0  0  0  0  0  0  0  0  0  0  0  0
  -15.3260    2.4190   20.8880 C   0  0  0  0  0  0  0  0  0  0  0  0
  1  4  1  0
  2  6  1  0
  2  7  1  0
  3  6  2  0
  4  6  1  0
  5 11  1  0
  7  8  2  0
  7 12  1  0
  8  9  1  0
  9 10  2  0
 10 11  1  0
 11 12  2  0
 12 13  1  0
M  END
$$$$
