CypD-x0675-pandda-model
     RDKit          3D

 14 15  0  0  0  0  0  0  0  0999 V2000
  -15.4339    1.3035   15.5867 C   0  0  0  0  0  0  0  0  0  0  0  0
  -16.2049    0.2518   14.8475 N   0  0  0  0  0  0  0  0  0  0  0  0
  -19.4262    0.1013   16.0368 O   0  0  0  0  0  0  0  0  0  0  0  0
  -15.6269   -0.0656   13.5027 C   0  0  0  0  0  0  0  0  0  0  0  0
  -18.1578    0.3781   16.1890 N   0  0  0  0  0  0  0  0  0  0  0  0
  -17.5824    0.1388   15.0772 C   0  0  0  0  0  0  0  0  0  0  0  0
  -18.4251   -0.2786   14.1364 N   0  0  0  0  0  0  0  0  0  0  0  0
  -19.5177   -0.2969   14.7917 C   0  0  0  0  0  0  0  0  0  0  0  0
  -23.0524   -0.4739   12.3395 N   0  0  0  0  0  0  0  0  0  0  0  0
  -20.9009   -0.7304   14.2874 C   0  0  0  0  0  0  0  0  0  0  0  0
  -21.8804    0.4595   14.2874 C   0  0  0  0  0  0  0  0  0  0  0  0
  -23.2436    0.1154   13.6800 C   0  0  0  0  0  0  0  0  0  0  0  0
  -22.2310   -1.7013   12.3299 C   0  0  0  0  0  0  0  0  0  0  0  0
  -20.8419   -1.3823   12.8911 C   0  0  0  0  0  0  0  0  0  0  0  0
  1  2  1  0
  2  4  1  0
  2  6  1  0
  3  5  1  0
  3  8  1  0
  5  6  2  0
  6  7  1  0
  7  8  2  0
  8 10  1  0
  9 12  1  0
  9 13  1  0
 10 11  1  0
 10 14  1  0
 11 12  1  0
 13 14  1  0
M  CHG  1   9   1
M  END
$$$$
