CypD-x0122-pandda-model
     RDKit          3D

 15 15  0  0  0  0  0  0  0  0999 V2000
  -15.9161   -2.5050   12.7758 C   0  0  0  0  0  0  0  0  0  0  0  0
  -14.8778   -1.6820   14.8849 N   0  0  0  0  0  0  0  0  0  0  0  0
  -13.6969   -2.8617   13.4390 O   0  0  0  0  0  0  0  0  0  0  0  0
  -14.1020    4.5435   17.4922 S   0  0  0  0  0  0  0  0  0  0  0  0
  -14.7504   -2.3572   13.7223 C   0  0  0  0  0  0  0  0  0  0  0  0
  -12.8010    5.0306   16.5740 N   0  0  0  0  0  0  0  0  0  0  0  0
  -13.6254    4.3975   18.8438 O   0  0  0  0  0  0  0  0  0  0  0  0
  -16.0201   -0.8967   15.3808 C   0  0  0  0  0  0  0  0  0  0  0  0
  -15.1565    5.4893   17.2132 O   0  0  0  0  0  0  0  0  0  0  0  0
  -15.5148    0.4397   15.9032 C   0  0  0  0  0  0  0  0  0  0  0  0
  -14.6689    1.2245   15.1372 C   0  0  0  0  0  0  0  0  0  0  0  0
  -14.2138    2.4402   15.6161 C   0  0  0  0  0  0  0  0  0  0  0  0
  -14.6015    2.9157   16.8631 C   0  0  0  0  0  0  0  0  0  0  0  0
  -15.4419    2.1122   17.6233 C   0  0  0  0  0  0  0  0  0  0  0  0
  -15.8927    0.8901   17.1563 C   0  0  0  0  0  0  0  0  0  0  0  0
  1  5  1  0
  2  5  1  0
  2  8  1  0
  3  5  2  0
  4  6  1  0
  4  7  2  0
  4  9  2  0
  4 13  1  0
  8 10  1  0
 10 11  2  0
 10 15  1  0
 11 12  1  0
 12 13  2  0
 13 14  1  0
 14 15  2  0
M  END
$$$$
