CypD-x0165-pandda-model
     RDKit          3D

 12 12  0  0  1  0  0  0  0  0999 V2000
  -19.6060    2.8600   17.4460 C   0  0  0  0  0  0  0  0  0  0  0  0
  -18.5300    1.0430   16.1010 N   0  0  0  0  0  0  0  0  0  0  0  0
  -17.3730    2.2280   17.6310 O   0  0  0  0  0  0  0  0  0  0  0  0
  -18.4200    2.0090   17.0630 C   0  0  0  0  0  0  0  0  0  0  0  0
  -21.4170    0.0190   12.9400 N   0  0  0  0  0  0  0  0  0  0  0  0
  -22.3190   -1.3410   14.4260 O   0  0  0  0  0  0  0  0  0  0  0  0
  -17.4410    0.0460   15.8850 C   0  0  0  0  0  0  0  0  0  0  0  0
  -18.0110   -1.3750   15.8650 C   0  0  0  0  0  0  0  0  0  0  0  0
  -19.1460   -1.5180   14.8420 C   0  0  0  0  0  0  0  0  0  0  0  0
  -20.2460   -0.4760   15.1110 C   0  0  1  0  0  0  0  0  0  0  0  0
  -19.6630    0.9430   15.1270 C   0  0  0  0  0  0  0  0  0  0  0  0
  -21.4010   -0.6220   14.1260 C   0  0  0  0  0  0  0  0  0  0  0  0
  1  4  1  0
  2  4  1  0
  2  7  1  0
  2 11  1  0
  3  4  2  0
  5 12  1  0
  6 12  2  0
  7  8  1  0
  8  9  1  0
  9 10  1  0
 10 11  1  0
 10 12  1  6
M  END
$$$$
