CypD-x0543-pandda-model
     RDKit          3D

  9  9  0  0  0  0  0  0  0  0999 V2000
  -14.0583    1.7569   19.3353 C   0  0  0  0  0  0  0  0  0  0  0  0
  -17.2243    4.5658   19.1948 O   0  0  0  0  0  0  0  0  0  0  0  0
  -14.5979    5.2969   17.4127 S   0  0  0  0  0  0  0  0  0  0  0  0
  -14.0983    3.0128   18.4844 C   0  0  0  0  0  0  0  0  0  0  0  0
  -15.8724    4.2076   20.7871 O   0  0  0  0  0  0  0  0  0  0  0  0
  -13.0466    3.0965   17.3844 C   0  0  0  0  0  0  0  0  0  0  0  0
  -13.0757    4.5022   16.7639 C   0  0  0  0  0  0  0  0  0  0  0  0
  -14.9713    4.0288   18.6237 C   0  0  0  0  0  0  0  0  0  0  0  0
  -16.0694    4.2649   19.5580 C   0  0  0  0  0  0  0  0  0  0  0  0
  1  4  1  0
  2  9  1  0
  3  7  1  0
  3  8  1  0
  4  6  1  0
  4  8  2  0
  5  9  2  0
  6  7  1  0
  8  9  1  0
M  CHG  1   2  -1
M  END
$$$$
