CypD-x0816-pandda-model
     RDKit          3D

 12 12  0  0  0  0  0  0  0  0999 V2000
  -22.8654   -0.2272   15.7152 C   0  0  0  0  0  0  0  0  0  0  0  0
  -20.6632   -0.1216   16.9020 N   0  0  0  0  0  0  0  0  0  0  0  0
  -21.8345   -2.0486   16.7397 O   0  0  0  0  0  0  0  0  0  0  0  0
  -21.7439   -0.8656   16.5025 C   0  0  0  0  0  0  0  0  0  0  0  0
  -16.3856    0.9571   18.0928 N   0  0  0  0  0  0  0  0  0  0  0  0
  -17.5587    2.6777   17.3975 O   0  0  0  0  0  0  0  0  0  0  0  0
  -20.4008    1.2871   16.4974 C   0  0  0  0  0  0  0  0  0  0  0  0
  -19.1993    1.3117   15.5461 C   0  0  0  0  0  0  0  0  0  0  0  0
  -17.9437    0.6557   16.1704 C   0  0  0  0  0  0  0  0  0  0  0  0
  -18.3213   -0.7577   16.6580 C   0  0  0  0  0  0  0  0  0  0  0  0
  -19.5162   -0.7438   17.6119 C   0  0  0  0  0  0  0  0  0  0  0  0
  -17.2912    1.5064   17.2645 C   0  0  0  0  0  0  0  0  0  0  0  0
  1  4  1  0
  2  4  1  0
  2  7  1  0
  2 11  1  0
  3  4  2  0
  5 12  1  0
  6 12  2  0
  7  8  1  0
  8  9  1  0
  9 10  1  0
  9 12  1  0
 10 11  1  0
M  END
$$$$
