CypD-x0148-pandda-model
     RDKit          3D

 11 11  0  0  0  0  0  0  0  0999 V2000
  -23.3874   -2.0029    8.2567 C   0  0  0  0  0  0  0  0  0  0  0  0
  -21.4016   -0.9575    9.8314 N   0  0  0  0  0  0  0  0  0  0  0  0
  -23.8424   -0.6058   10.4382 O   0  0  0  0  0  0  0  0  0  0  0  0
  -22.9706   -0.6053    9.2854 S   0  0  0  0  0  0  0  0  0  0  0  0
  -21.3540   -2.0481   10.8170 C   0  0  0  0  0  0  0  0  0  0  0  0
  -22.8661    0.5756    8.4573 O   0  0  0  0  0  0  0  0  0  0  0  0
  -19.8953   -2.3860   11.1685 C   0  0  0  0  0  0  0  0  0  0  0  0
  -17.8319   -1.4155   11.8792 O   0  0  0  0  0  0  0  0  0  0  0  0
  -19.1751   -1.1438   11.6946 C   0  0  0  0  0  0  0  0  0  0  0  0
  -19.3079    0.0044   10.7080 C   0  0  0  0  0  0  0  0  0  0  0  0
  -20.7892    0.2430   10.4164 C   0  0  0  0  0  0  0  0  0  0  0  0
  1  4  1  0
  2  4  1  0
  2  5  1  0
  2 11  1  0
  3  4  2  0
  4  6  2  0
  5  7  1  0
  7  9  1  0
  8  9  1  0
  9 10  1  0
 10 11  1  0
M  END
$$$$
