CypD-x0436-pandda-model
     RDKit          3D

 15 16  0  0  0  0  0  0  0  0999 V2000
  -19.3437   -1.7338   14.9589 C   0  0  0  0  0  0  0  0  0  0  0  0
  -19.6908   -0.2876   15.0547 N   0  0  0  0  0  0  0  0  0  0  0  0
  -23.4101   -1.2886   12.8678 O   0  0  0  0  0  0  0  0  0  0  0  0
  -20.8416    0.2527   14.2662 C   0  0  2  0  0  0  0  0  0  0  0  0
  -17.6636    2.2734   17.5402 N   0  0  0  0  0  0  0  0  0  0  0  0
  -22.2352   -0.2378   14.7354 C   0  0  0  0  0  0  0  0  0  0  0  0
  -19.6491    1.5624   16.4541 N   0  0  0  0  0  0  0  0  0  0  0  0
  -22.6271   -0.2042   13.2372 C   0  0  1  0  0  0  0  0  0  0  0  0
  -21.1318   -0.4179   12.8936 C   0  0  0  0  0  0  0  0  0  0  0  0
  -18.9938    0.5610   15.8969 C   0  0  0  0  0  0  0  0  0  0  0  0
  -17.6476    0.3801   16.1586 C   0  0  0  0  0  0  0  0  0  0  0  0
  -17.0192    1.2619   16.9914 C   0  0  0  0  0  0  0  0  0  0  0  0
  -15.5490    1.1085   17.3174 C   0  0  0  0  0  0  0  0  0  0  0  0
  -18.9528    2.3511   17.2454 C   0  0  0  0  0  0  0  0  0  0  0  0
  -19.7074    3.4847   17.8990 C   0  0  0  0  0  0  0  0  0  0  0  0
  1  2  1  0
  4  2  1  1
  2 10  1  0
  8  3  1  1
  4  6  1  0
  4  9  1  0
  5 12  2  0
  5 14  1  0
  6  8  1  0
  7 10  1  0
  7 14  2  0
  8  9  1  0
 10 11  2  0
 11 12  1  0
 12 13  1  0
 14 15  1  0
M  END
$$$$
