CypD-x0985-pandda-model
     RDKit          3D

 12 13  0  0  0  0  0  0  0  0999 V2000
  -17.3087    0.7686   12.4815 C   0  0  0  0  0  0  0  0  0  0  0  0
  -16.6874    0.8840   13.8117 N   0  0  0  0  0  0  0  0  0  0  0  0
  -15.7639    0.1074   14.2089 C   0  0  0  0  0  0  0  0  0  0  0  0
  -15.0519   -1.1132   16.3057 N   0  0  0  0  0  0  0  0  0  0  0  0
  -15.2105    0.2258   15.6391 C   0  0  0  0  0  0  0  0  0  0  0  0
  -15.1916   -0.9003   13.4670 N   0  0  0  0  0  0  0  0  0  0  0  0
  -14.4656   -2.0794   15.4707 C   0  0  0  0  0  0  0  0  0  0  0  0
  -13.8223   -3.1668   16.0406 C   0  0  0  0  0  0  0  0  0  0  0  0
  -13.2541   -4.1491   15.2485 C   0  0  0  0  0  0  0  0  0  0  0  0
  -13.3354   -4.0601   13.8708 C   0  0  0  0  0  0  0  0  0  0  0  0
  -13.9807   -2.9832   13.2840 C   0  0  0  0  0  0  0  0  0  0  0  0
  -14.5375   -1.9873   14.0667 C   0  0  0  0  0  0  0  0  0  0  0  0
  1  2  1  0
  2  3  2  0
  3  5  1  0
  3  6  1  0
  4  5  1  0
  4  7  1  0
  6 12  1  0
  7  8  1  0
  7 12  2  0
  8  9  2  0
  9 10  1  0
 10 11  2  0
 11 12  1  0
M  END
$$$$
