CypD-x0978-pandda-model
     RDKit          3D

 13 14  0  0  0  0  0  0  0  0999 V2000
  -16.1956    2.5887   17.7537 C   0  0  0  0  0  0  0  0  0  0  0  0
  -17.9506    4.1442   19.1838 N   0  0  0  0  0  0  0  0  0  0  0  0
  -16.4816    5.2583   17.5087 O   0  0  0  0  0  0  0  0  0  0  0  0
  -16.4266    4.2255   18.5135 S   0  0  0  0  0  0  0  0  0  0  0  0
  -15.0816    1.8314   17.7820 C   0  0  0  0  0  0  0  0  0  0  0  0
  -15.3423    0.6479   17.1421 N   0  0  0  0  0  0  0  0  0  0  0  0
  -15.5184    4.3788   19.6285 O   0  0  0  0  0  0  0  0  0  0  0  0
  -16.5966    0.6978   16.6756 C   0  0  0  0  0  0  0  0  0  0  0  0
  -18.4470    2.2555   16.7377 N   0  0  0  0  0  0  0  0  0  0  0  0
  -17.3580   -0.2048   15.9282 C   0  0  0  0  0  0  0  0  0  0  0  0
  -17.1661    1.8735   17.0492 N   0  0  0  0  0  0  0  0  0  0  0  0
  -18.6359    0.1616   15.5908 C   0  0  0  0  0  0  0  0  0  0  0  0
  -19.1361    1.4106   16.0158 C   0  0  0  0  0  0  0  0  0  0  0  0
  1  4  1  0
  1  5  2  0
  1 11  1  0
  2  4  1  0
  3  4  2  0
  4  7  2  0
  5  6  1  0
  6  8  2  0
  8 10  1  0
  8 11  1  0
  9 11  1  0
  9 13  2  0
 10 12  2  0
 12 13  1  0
M  CHG  1   6   1
M  END
$$$$
