CypD-x0187-pandda-model
     RDKit          3D

 13 13  0  0  0  0  0  0  0  0999 V2000
   -8.4910    1.3060   21.9070 C   0  0  0  0  0  0  0  0  0  0  0  0
  -12.0100    2.0910   19.5820 N   0  0  0  0  0  0  0  0  0  0  0  0
  -10.8220    1.7130   21.4670 O   0  0  0  0  0  0  0  0  0  0  0  0
   -9.9330    0.9810   22.2860 C   0  0  0  0  0  0  0  0  0  0  0  0
  -10.4390    0.4940   19.6530 O   0  0  0  0  0  0  0  0  0  0  0  0
  -11.0520    1.3830   20.2020 C   0  0  0  0  0  0  0  0  0  0  0  0
  -12.4910    1.8310   18.2210 C   0  0  0  0  0  0  0  0  0  0  0  0
  -13.2760    3.0530   17.7910 C   0  0  0  0  0  0  0  0  0  0  0  0
  -12.7240    3.9490   16.8920 C   0  0  0  0  0  0  0  0  0  0  0  0
  -13.4180    5.0890   16.5320 C   0  0  0  0  0  0  0  0  0  0  0  0
  -14.6700    5.3360   17.0640 C   0  0  0  0  0  0  0  0  0  0  0  0
  -15.2350    4.4360   17.9500 C   0  0  0  0  0  0  0  0  0  0  0  0
  -14.5380    3.2970   18.3120 C   0  0  0  0  0  0  0  0  0  0  0  0
  1  4  1  0
  2  6  1  0
  2  7  1  0
  3  4  1  0
  3  6  1  0
  5  6  2  0
  7  8  1  0
  8  9  2  0
  8 13  1  0
  9 10  1  0
 10 11  2  0
 11 12  1  0
 12 13  2  0
M  END
$$$$
