CypD-x0329-pandda-model
     RDKit          3D

 14 14  0  0  0  0  0  0  0  0999 V2000
  -26.0810   -1.8440    5.3990 C   0  0  0  0  0  0  0  0  0  0  0  0
  -25.2840   -1.3870    7.9060 N   0  0  0  0  0  0  0  0  0  0  0  0
  -23.7810   -2.7010    6.3810 O   0  0  0  0  0  0  0  0  0  0  0  0
  -24.6290   -1.5260    6.3760 S   0  0  0  0  0  0  0  0  0  0  0  0
  -24.3520   -1.5150    9.0340 C   0  0  0  0  0  0  0  0  0  0  0  0
  -22.1760   -0.8040   10.1150 N   0  0  0  0  0  0  0  0  0  0  0  0
  -24.0340   -0.2750    5.9810 O   0  0  0  0  0  0  0  0  0  0  0  0
  -23.1650   -0.5340    9.1910 C   0  0  0  0  0  0  0  0  0  0  0  0
  -23.1260    0.4790    8.5270 O   0  0  0  0  0  0  0  0  0  0  0  0
  -22.1570   -1.9840   11.0300 C   0  0  0  0  0  0  0  0  0  0  0  0
  -20.7790   -2.6520   10.9970 C   0  0  0  0  0  0  0  0  0  0  0  0
  -19.6740   -1.6610   11.3800 C   0  0  0  0  0  0  0  0  0  0  0  0
  -19.7320   -0.4290   10.4690 C   0  0  0  0  0  0  0  0  0  0  0  0
  -21.1280    0.2060   10.4380 C   0  0  0  0  0  0  0  0  0  0  0  0
  1  4  1  0
  2  4  1  0
  2  5  1  0
  3  4  2  0
  4  7  2  0
  5  8  1  0
  6  8  1  0
  6 10  1  0
  6 14  1  0
  8  9  2  0
 10 11  1  0
 11 12  1  0
 12 13  1  0
 13 14  1  0
M  END
$$$$
