CypD-x0334-pandda-model
     RDKit          3D

 14 14  0  0  0  0  0  0  0  0999 V2000
  -12.0006    0.6694   20.0936 C   0  0  0  0  0  0  0  0  0  0  0  0
  -14.1980    1.2115   19.0145 N   0  0  0  0  0  0  0  0  0  0  0  0
  -13.9269   -0.6463   20.2024 O   0  0  0  0  0  0  0  0  0  0  0  0
  -13.4434    0.3636   19.7634 C   0  0  0  0  0  0  0  0  0  0  0  0
  -16.6351    4.0881   19.5880 O   0  0  0  0  0  0  0  0  0  0  0  0
  -13.9165    2.3537   18.2589 C   0  0  0  0  0  0  0  0  0  0  0  0
  -16.8030    2.1578   18.6773 O   0  0  0  0  0  0  0  0  0  0  0  0
  -12.7112    2.4760   17.5690 C   0  0  0  0  0  0  0  0  0  0  0  0
  -12.4232    3.5955   16.8138 C   0  0  0  0  0  0  0  0  0  0  0  0
  -13.3542    4.6129   16.7304 C   0  0  0  0  0  0  0  0  0  0  0  0
  -14.5587    4.4725   17.3927 C   0  0  0  0  0  0  0  0  0  0  0  0
  -14.8840    3.3649   18.1698 C   0  0  0  0  0  0  0  0  0  0  0  0
  -16.1601    3.2201   18.8271 C   0  0  0  0  0  0  0  0  0  0  0  0
  -15.4309    5.4298   17.2321 F   0  0  0  0  0  0  0  0  0  0  0  0
  1  4  1  0
  2  4  1  0
  2  6  1  0
  3  4  2  0
  5 13  1  0
  6  8  2  0
  6 12  1  0
  7 13  2  0
  8  9  1  0
  9 10  2  0
 10 11  1  0
 11 12  2  0
 11 14  1  0
 12 13  1  0
M  CHG  1   5  -1
M  END
$$$$
