CypD-x0127-pandda-model
     RDKit          3D

 13 13  0  0  0  0  0  0  0  0999 V2000
  -25.5680   14.2240   20.5040 C   0  0  0  0  0  0  0  0  0  0  0  0
  -25.3960   10.9180   20.0950 N   0  0  0  0  0  0  0  0  0  0  0  0
  -26.7340   13.9730   19.7920 O   0  0  0  0  0  0  0  0  0  0  0  0
  -26.7820   12.7390   19.1080 C   0  0  0  0  0  0  0  0  0  0  0  0
  -27.6130   10.9830   20.4870 O   0  0  0  0  0  0  0  0  0  0  0  0
  -26.6360   11.4760   19.9750 C   0  0  0  0  0  0  0  0  0  0  0  0
  -23.3990    5.8040   19.7260 O   0  0  0  0  0  0  0  0  0  0  0  0
  -25.0030    9.5750   20.1630 C   0  0  0  0  0  0  0  0  0  0  0  0
  -23.6830    9.3150   20.4890 C   0  0  0  0  0  0  0  0  0  0  0  0
  -23.1550    8.0450   20.3950 C   0  0  0  0  0  0  0  0  0  0  0  0
  -23.9550    7.0080   19.9580 C   0  0  0  0  0  0  0  0  0  0  0  0
  -25.3020    7.2230   19.7170 C   0  0  0  0  0  0  0  0  0  0  0  0
  -25.8260    8.5030   19.8280 C   0  0  0  0  0  0  0  0  0  0  0  0
  1  3  1  0
  2  6  1  0
  2  8  1  0
  3  4  1  0
  4  6  1  0
  5  6  2  0
  7 11  1  0
  8  9  2  0
  8 13  1  0
  9 10  1  0
 10 11  2  0
 11 12  1  0
 12 13  2  0
M  END
$$$$
