CypD-x0256-pandda-model
     RDKit          3D

 14 15  0  0  0  0  0  0  0  0999 V2000
  -15.6049    1.2092   17.3689 C   0  0  0  0  0  0  0  0  0  0  0  0
  -19.6070    1.7259   16.1432 N   0  0  0  0  0  0  0  0  0  0  0  0
  -17.0390    1.3807   16.9129 C   0  0  0  0  0  0  0  0  0  0  0  0
  -17.6929    2.4391   17.3586 N   0  0  0  0  0  0  0  0  0  0  0  0
  -17.6251    0.4752   16.0695 C   0  0  0  0  0  0  0  0  0  0  0  0
  -19.5784   -0.1499   14.8042 N   0  0  0  0  0  0  0  0  0  0  0  0
  -18.9313    0.6929   15.6832 C   0  0  0  0  0  0  0  0  0  0  0  0
  -22.1573   -1.4493   14.2482 N   0  0  0  0  0  0  0  0  0  0  0  0
  -18.9490    2.5367   16.9493 C   0  0  0  0  0  0  0  0  0  0  0  0
  -19.7145    3.7284   17.4676 C   0  0  0  0  0  0  0  0  0  0  0  0
  -19.7495   -1.6004   15.1097 C   0  0  0  0  0  0  0  0  0  0  0  0
  -21.2353   -1.9827   15.3157 C   0  0  0  0  0  0  0  0  0  0  0  0
  -21.9742    0.0272   14.0165 C   0  0  0  0  0  0  0  0  0  0  0  0
  -20.5043    0.4175   13.7726 C   0  0  0  0  0  0  0  0  0  0  0  0
  1  3  1  0
  2  7  2  0
  2  9  1  0
  3  4  1  0
  3  5  2  0
  4  9  2  0
  5  7  1  0
  6  7  1  0
  6 11  1  0
  6 14  1  0
  8 12  1  0
  8 13  1  0
  9 10  1  0
 11 12  1  0
 13 14  1  0
M  CHG  1   8   1
M  END
$$$$
