CypD-x0541-pandda-model
     RDKit          3D

 18 19  0  0  1  0  0  0  0  0999 V2000
  -20.1480    3.9630   23.7220 C   0  0  0  0  0  0  0  0  0  0  0  0
  -18.1060    4.1950   22.5370 O   0  0  0  0  0  0  0  0  0  0  0  0
  -19.5230    4.2190   22.3440 C   0  0  2  0  0  0  0  0  0  0  0  0
  -21.2110    5.5560   21.2690 O   0  0  0  0  0  0  0  0  0  0  0  0
  -17.2320    3.9800   21.5250 C   0  0  0  0  0  0  0  0  0  0  0  0
  -19.3500    6.5310   21.5730 O   0  0  0  0  0  0  0  0  0  0  0  0
  -17.5670    4.0340   20.1770 C   0  0  0  0  0  0  0  0  0  0  0  0
  -16.5890    3.8540   19.2160 C   0  0  0  0  0  0  0  0  0  0  0  0
  -15.2560    3.6270   19.5600 C   0  0  0  0  0  0  0  0  0  0  0  0
  -14.9470    3.5510   20.9170 C   0  0  0  0  0  0  0  0  0  0  0  0
  -15.9200    3.7190   21.8840 C   0  0  0  0  0  0  0  0  0  0  0  0
  -14.2340    3.4800   18.5430 C   0  0  0  0  0  0  0  0  0  0  0  0
  -13.2260    2.5230   18.6600 C   0  0  0  0  0  0  0  0  0  0  0  0
  -12.2450    2.3890   17.6950 C   0  0  0  0  0  0  0  0  0  0  0  0
  -12.2570    3.2080   16.5810 C   0  0  0  0  0  0  0  0  0  0  0  0
  -13.2470    4.1610   16.4400 C   0  0  0  0  0  0  0  0  0  0  0  0
  -14.2220    4.2930   17.4100 C   0  0  0  0  0  0  0  0  0  0  0  0
  -20.0540    5.5170   21.6970 C   0  0  0  0  0  0  0  0  0  0  0  0
  3  1  1  1
  2  3  1  0
  2  5  1  0
  3 18  1  0
  4 18  1  0
  5  7  2  0
  5 11  1  0
  6 18  2  0
  7  8  1  0
  8  9  2  0
  9 10  1  0
  9 12  1  0
 10 11  2  0
 12 13  2  0
 12 17  1  0
 13 14  1  0
 14 15  2  0
 15 16  1  0
 16 17  2  0
M  CHG  1   4  -1
M  END
$$$$
