CypD-x0498-pandda-model
     RDKit          3D

 13 13  0  0  1  0  0  0  0  0999 V2000
  -13.6390    1.6630   20.9760 C   0  0  0  0  0  0  0  0  0  0  0  0
  -15.1850    2.0220   19.1560 O   0  0  0  0  0  0  0  0  0  0  0  0
  -15.0560    2.1210   20.5820 C   0  0  2  0  0  0  0  0  0  0  0  0
  -14.7190    4.1080   21.9440 O   0  0  0  0  0  0  0  0  0  0  0  0
  -14.5660    2.9180   18.3450 C   0  0  0  0  0  0  0  0  0  0  0  0
  -16.6080    3.9550   20.9770 O   0  0  0  0  0  0  0  0  0  0  0  0
  -15.1610    4.1450   18.0890 C   0  0  0  0  0  0  0  0  0  0  0  0
  -14.5590    5.0420   17.2210 C   0  0  0  0  0  0  0  0  0  0  0  0
  -13.3590    4.7280   16.6020 C   0  0  0  0  0  0  0  0  0  0  0  0
  -12.7530    3.5050   16.8380 C   0  0  0  0  0  0  0  0  0  0  0  0
  -13.3710    2.6170   17.6980 C   0  0  0  0  0  0  0  0  0  0  0  0
  -15.4810    3.4800   21.1900 C   0  0  0  0  0  0  0  0  0  0  0  0
  -12.7960    1.4550   17.8890 F   0  0  0  0  0  0  0  0  0  0  0  0
  3  1  1  6
  2  3  1  0
  2  5  1  0
  3 12  1  0
  4 12  1  0
  5  7  2  0
  5 11  1  0
  6 12  2  0
  7  8  1  0
  8  9  2  0
  9 10  1  0
 10 11  2  0
 11 13  1  0
M  CHG  1   4  -1
M  END
$$$$
