CypD-x0527-pandda-model
     RDKit          3D

 12 12  0  0  0  0  0  0  0  0999 V2000
  -16.0140   -3.2655   14.2567 C   0  0  0  0  0  0  0  0  0  0  0  0
  -16.4591   -3.0807   12.8714 N   0  0  0  0  0  0  0  0  0  0  0  0
  -16.0817   -4.6961    9.0002 O   0  0  0  0  0  0  0  0  0  0  0  0
  -16.3190   -3.9336   11.8526 C   0  0  0  0  0  0  0  0  0  0  0  0
  -17.9263   -3.6454    8.5523 N   0  0  0  0  0  0  0  0  0  0  0  0
  -16.8696   -3.3709   10.7415 C   0  0  0  0  0  0  0  0  0  0  0  0
  -17.0788   -1.9595   12.4812 N   0  0  0  0  0  0  0  0  0  0  0  0
  -16.9353   -3.9389    9.4143 C   0  0  0  0  0  0  0  0  0  0  0  0
  -17.3222   -2.1205   11.2061 C   0  0  0  0  0  0  0  0  0  0  0  0
  -17.9879   -1.0629   10.2988 C   0  0  0  0  0  0  0  0  0  0  0  0
  -18.2707    0.0555   10.9571 F   0  0  0  0  0  0  0  0  0  0  0  0
  -19.1720   -1.5035    9.8752 F   0  0  0  0  0  0  0  0  0  0  0  0
  1  2  1  0
  2  4  1  0
  2  7  1  0
  3  8  2  0
  4  6  2  0
  5  8  1  0
  6  8  1  0
  6  9  1  0
  7  9  2  0
  9 10  1  0
 10 11  1  0
 10 12  1  0
M  END
$$$$
