CypD-x0812-pandda-model
     RDKit          3D

 15 15  0  0  0  0  0  0  0  0999 V2000
  -26.6989   -0.3142    8.4380 C   0  0  0  0  0  0  0  0  0  0  0  0
  -25.2851   -0.2765    8.0326 N   0  0  0  0  0  0  0  0  0  0  0  0
  -22.6843    0.7930    8.5404 O   0  0  0  0  0  0  0  0  0  0  0  0
  -24.9460   -1.3046    6.7230 S   0  0  0  0  0  0  0  0  0  0  0  0
  -24.4452   -0.6524    9.2140 C   0  0  0  0  0  0  0  0  0  0  0  0
  -22.1202   -0.5939   10.2274 N   0  0  0  0  0  0  0  0  0  0  0  0
  -23.5699   -1.0912    6.3371 O   0  0  0  0  0  0  0  0  0  0  0  0
  -23.0023   -0.1068    9.2865 C   0  0  0  0  0  0  0  0  0  0  0  0
  -25.3712   -2.6230    7.1369 O   0  0  0  0  0  0  0  0  0  0  0  0
  -20.7679   -0.0005   10.4233 C   0  0  0  0  0  0  0  0  0  0  0  0
  -19.7003   -1.0918   10.3055 C   0  0  0  0  0  0  0  0  0  0  0  0
  -19.9614   -2.2365   11.2946 C   0  0  0  0  0  0  0  0  0  0  0  0
  -21.3929   -2.7695   11.1377 C   0  0  0  0  0  0  0  0  0  0  0  0
  -22.4274   -1.6436   11.2403 C   0  0  0  0  0  0  0  0  0  0  0  0
  -26.0100   -0.7327    5.4150 C   0  0  0  0  0  0  0  0  0  0  0  0
  1  2  1  0
  2  4  1  0
  2  5  1  0
  3  8  2  0
  4  7  2  0
  4  9  2  0
  4 15  1  0
  5  8  1  0
  6  8  1  0
  6 10  1  0
  6 14  1  0
 10 11  1  0
 11 12  1  0
 12 13  1  0
 13 14  1  0
M  END
$$$$
