CypD-x0228-pandda-model
     RDKit          3D

 13 13  0  0  0  0  0  0  0  0999 V2000
  -17.7008    1.1441   17.6171 C   0  0  0  0  0  0  0  0  0  0  0  0
  -16.4588    0.4501   17.2758 N   0  0  0  0  0  0  0  0  0  0  0  0
  -15.3234   -1.3998   15.9932 O   0  0  0  0  0  0  0  0  0  0  0  0
  -16.6474   -0.8471   16.1888 S   0  0  0  0  0  0  0  0  0  0  0  0
  -15.4057    1.3972   16.9098 C   0  0  0  0  0  0  0  0  0  0  0  0
  -18.3664    0.9019   13.0606 N   0  0  0  0  0  0  0  0  0  0  0  0
  -17.6877   -1.7002   16.7277 O   0  0  0  0  0  0  0  0  0  0  0  0
  -17.2353   -0.0553   14.6647 C   0  0  0  0  0  0  0  0  0  0  0  0
  -17.0935    0.9094   12.6377 N   0  0  0  0  0  0  0  0  0  0  0  0
  -18.4829    0.3331   14.2746 C   0  0  0  0  0  0  0  0  0  0  0  0
  -19.8299    0.2130   14.9685 C   0  0  0  0  0  0  0  0  0  0  0  0
  -16.4277    0.3406   13.5944 C   0  0  0  0  0  0  0  0  0  0  0  0
  -14.9291    0.1649   13.4906 C   0  0  0  0  0  0  0  0  0  0  0  0
  1  2  1  0
  2  4  1  0
  2  5  1  0
  3  4  2  0
  4  7  2  0
  4  8  1  0
  6  9  1  0
  6 10  1  0
  8 10  2  0
  8 12  1  0
  9 12  2  0
 10 11  1  0
 12 13  1  0
M  END
$$$$
