CypD-x0863-pandda-model
     RDKit          3D

 11 11  0  0  0  0  0  0  0  0999 V2000
  -12.3501    2.3483   21.3097 C   0  0  0  0  0  0  0  0  0  0  0  0
  -13.5132    2.9169   20.5578 N   0  0  0  0  0  0  0  0  0  0  0  0
  -14.6525    4.3405   22.4861 O   0  0  0  0  0  0  0  0  0  0  0  0
  -14.8730    2.4876   21.0327 C   0  0  0  0  0  0  0  0  0  0  0  0
  -14.1849    4.3509   18.8784 N   0  0  0  0  0  0  0  0  0  0  0  0
  -15.1937    3.0687   22.4196 C   0  0  0  0  0  0  0  0  0  0  0  0
  -13.3774    3.3603   19.2492 C   0  0  0  0  0  0  0  0  0  0  0  0
  -12.4272    2.7986   18.3917 C   0  0  0  0  0  0  0  0  0  0  0  0
  -12.2779    3.2674   17.1086 C   0  0  0  0  0  0  0  0  0  0  0  0
  -13.1120    4.2969   16.7275 C   0  0  0  0  0  0  0  0  0  0  0  0
  -14.0324    4.7865   17.6368 C   0  0  0  0  0  0  0  0  0  0  0  0
  1  2  1  0
  2  4  1  0
  2  7  1  0
  3  6  1  0
  4  6  1  0
  5  7  2  0
  5 11  1  0
  7  8  1  0
  8  9  2  0
  9 10  1  0
 10 11  2  0
M  END
$$$$
