CypD-x0334-pandda-model
     RDKit          3D

 14 14  0  0  0  0  0  0  0  0999 V2000
  -13.2752    1.4775   22.4278 C   0  0  0  0  0  0  0  0  0  0  0  0
  -13.5049    2.6237   20.2771 N   0  0  0  0  0  0  0  0  0  0  0  0
  -11.9274    1.0212   20.5705 O   0  0  0  0  0  0  0  0  0  0  0  0
  -12.8442    1.6783   20.9991 C   0  0  0  0  0  0  0  0  0  0  0  0
  -15.4005    4.5033   20.6321 O   0  0  0  0  0  0  0  0  0  0  0  0
  -13.3936    3.1358   18.9786 C   0  0  0  0  0  0  0  0  0  0  0  0
  -16.5702    4.7274   18.9149 O   0  0  0  0  0  0  0  0  0  0  0  0
  -12.3824    2.7430   18.1019 C   0  0  0  0  0  0  0  0  0  0  0  0
  -12.2604    3.2969   16.8421 C   0  0  0  0  0  0  0  0  0  0  0  0
  -13.1516    4.2715   16.4369 C   0  0  0  0  0  0  0  0  0  0  0  0
  -14.1568    4.6486   17.3027 C   0  0  0  0  0  0  0  0  0  0  0  0
  -14.3365    4.0884   18.5650 C   0  0  0  0  0  0  0  0  0  0  0  0
  -15.4576    4.4563   19.3918 C   0  0  0  0  0  0  0  0  0  0  0  0
  -14.9586    5.5960   16.8919 F   0  0  0  0  0  0  0  0  0  0  0  0
  1  4  1  0
  2  4  1  0
  2  6  1  0
  3  4  2  0
  5 13  1  0
  6  8  2  0
  6 12  1  0
  7 13  2  0
  8  9  1  0
  9 10  2  0
 10 11  1  0
 11 12  2  0
 11 14  1  0
 12 13  1  0
M  CHG  1   5  -1
M  END
$$$$
