CypD-x0704-pandda-model
     RDKit          3D

 15 16  0  0  1  0  0  0  0  0999 V2000
  -11.1590    1.8320   19.2250 C   0  0  0  0  0  0  0  0  0  0  0  0
  -14.2800    2.2820   18.4500 N   0  0  0  0  0  0  0  0  0  0  0  0
  -12.5630    3.7310   15.5920 O   0  0  0  0  0  0  0  0  0  0  0  0
  -11.9910    1.2200   18.1020 C   0  0  2  0  0  0  0  0  0  0  0  0
  -11.8470    2.0890   16.9070 N   0  0  0  0  0  0  0  0  0  0  0  0
  -13.4730    1.0190   18.5140 C   0  0  0  0  0  0  0  0  0  0  0  0
  -16.0650    1.1310   19.3930 N   0  0  0  0  0  0  0  0  0  0  0  0
  -14.2280    2.8760   17.0580 C   0  0  0  0  0  0  0  0  0  0  0  0
  -12.8140    2.9320   16.4590 C   0  0  0  0  0  0  0  0  0  0  0  0
  -15.5360    2.3090   19.0630 C   0  0  0  0  0  0  0  0  0  0  0  0
  -17.2880    1.1530   19.9070 C   0  0  0  0  0  0  0  0  0  0  0  0
  -18.0370    2.2950   20.1370 C   0  0  0  0  0  0  0  0  0  0  0  0
  -17.4970    3.5290   19.8310 C   0  0  0  0  0  0  0  0  0  0  0  0
  -16.2280    3.5100   19.3080 C   0  0  0  0  0  0  0  0  0  0  0  0
  -15.6570    4.6620   19.0500 F   0  0  0  0  0  0  0  0  0  0  0  0
  4  1  1  1
  2  6  1  0
  2  8  1  0
  2 10  1  0
  3  9  2  0
  4  5  1  0
  4  6  1  0
  5  9  1  0
  7 10  2  0
  7 11  1  0
  8  9  1  0
 10 14  1  0
 11 12  2  0
 12 13  1  0
 13 14  2  0
 14 15  1  0
M  END
$$$$
