CypD-x0650-pandda-model
     RDKit          3D

 13 14  0  0  1  0  0  0  0  0999 V2000
  -24.4660   -2.9420   14.2360 C   0  0  2  0  0  0  0  0  0  0  0  0
  -22.1610   -3.1920   12.9030 N   0  0  0  0  0  0  0  0  0  0  0  0
  -22.8250    0.3880    8.9790 O   0  0  0  0  0  0  0  0  0  0  0  0
  -22.7260   -3.2380   14.5520 S   0  0  0  0  0  0  0  0  0  0  0  0
  -24.4460   -2.4540   12.7840 C   0  0  2  0  0  0  0  0  0  0  0  0
  -23.3690   -3.2160   12.0910 N   0  0  0  0  0  0  0  0  0  0  0  0
  -24.2060   -0.9230   12.7300 C   0  0  0  0  0  0  0  0  0  0  0  0
  -23.8100   -0.3490   11.3950 N   0  0  0  0  0  0  0  0  0  0  0  0
  -24.5060   -0.9460   10.2030 C   0  0  0  0  0  0  0  0  0  0  0  0
  -23.9390   -0.4610    8.8470 C   0  0  0  0  0  0  0  0  0  0  0  0
  -21.8290   -0.1240    9.8240 C   0  0  0  0  0  0  0  0  0  0  0  0
  -22.3190   -0.2780   11.2730 C   0  0  0  0  0  0  0  0  0  0  0  0
  -25.0170   -1.7330   15.3870 Cl  0  0  0  0  0  0  0  0  0  0  0  0
  1  4  1  0
  1  5  1  0
  1 13  1  1
  2  4  1  0
  2  6  1  0
  3 10  1  0
  3 11  1  0
  5  6  1  0
  5  7  1  1
  7  8  1  0
  8  9  1  0
  8 12  1  0
  9 10  1  0
 11 12  1  0
M  CHG  1   8   1
M  END
$$$$
