CypD-x0148-pandda-model
     RDKit          3D

 11 11  0  0  0  0  0  0  0  0999 V2000
  -24.2379   -0.8431   10.1734 C   0  0  0  0  0  0  0  0  0  0  0  0
  -21.5913   -1.3051    9.9760 N   0  0  0  0  0  0  0  0  0  0  0  0
  -22.6658    0.5724    8.5936 O   0  0  0  0  0  0  0  0  0  0  0  0
  -22.8928   -0.7938    9.0128 S   0  0  0  0  0  0  0  0  0  0  0  0
  -20.7958   -2.3792    9.3688 C   0  0  0  0  0  0  0  0  0  0  0  0
  -23.1456   -1.7978    8.0011 O   0  0  0  0  0  0  0  0  0  0  0  0
  -19.7931   -2.9484   10.3748 C   0  0  0  0  0  0  0  0  0  0  0  0
  -18.0472   -1.4267    9.9064 O   0  0  0  0  0  0  0  0  0  0  0  0
  -18.8708   -1.8655   10.9303 C   0  0  0  0  0  0  0  0  0  0  0  0
  -19.6974   -0.6954   11.4652 C   0  0  0  0  0  0  0  0  0  0  0  0
  -20.7383   -0.2007   10.4539 C   0  0  0  0  0  0  0  0  0  0  0  0
  1  4  1  0
  2  4  1  0
  2  5  1  0
  2 11  1  0
  3  4  2  0
  4  6  2  0
  5  7  1  0
  7  9  1  0
  8  9  1  0
  9 10  1  0
 10 11  1  0
M  END
$$$$
