CypD-x0945-pandda-model
     RDKit          3D

 12 13  0  0  0  0  0  0  0  0999 V2000
  -22.2831    0.7482   14.5078 C   0  0  0  0  0  0  0  0  0  0  0  0
  -20.8305    0.8206   14.1946 N   0  0  0  0  0  0  0  0  0  0  0  0
  -19.7354    0.7240   14.9620 C   0  0  0  0  0  0  0  0  0  0  0  0
  -19.8906    0.7741   16.2842 N   0  0  0  0  0  0  0  0  0  0  0  0
  -18.8360    0.7668   17.1674 C   0  0  0  0  0  0  0  0  0  0  0  0
  -17.5676    0.6680   16.7062 C   0  0  0  0  0  0  0  0  0  0  0  0
  -17.3104    0.5665   15.3123 C   0  0  0  0  0  0  0  0  0  0  0  0
  -16.0097    0.4347   14.8100 C   0  0  0  0  0  0  0  0  0  0  0  0
  -15.7860    0.3024   13.4627 C   0  0  0  0  0  0  0  0  0  0  0  0
  -16.8615    0.3070   12.5817 C   0  0  0  0  0  0  0  0  0  0  0  0
  -18.1425    0.4534   13.0528 C   0  0  0  0  0  0  0  0  0  0  0  0
  -18.4088    0.5899   14.4255 C   0  0  0  0  0  0  0  0  0  0  0  0
  1  2  1  0
  2  3  1  0
  3  4  2  0
  3 12  1  0
  4  5  1  0
  5  6  2  0
  6  7  1  0
  7  8  1  0
  7 12  2  0
  8  9  2  0
  9 10  1  0
 10 11  2  0
 11 12  1  0
M  CHG  1   4   1
M  END
$$$$
