CypD-x0498-pandda-model
     RDKit          3D

 13 13  0  0  1  0  0  0  0  0999 V2000
  -15.6294    0.9943   21.2827 C   0  0  0  0  0  0  0  0  0  0  0  0
  -14.1208    2.2121   19.9150 O   0  0  0  0  0  0  0  0  0  0  0  0
  -15.4117    2.3058   20.5180 C   0  0  2  0  0  0  0  0  0  0  0  0
  -16.7164    4.0458   21.5373 O   0  0  0  0  0  0  0  0  0  0  0  0
  -13.7694    2.8546   18.7654 C   0  0  0  0  0  0  0  0  0  0  0  0
  -14.6564    4.0417   22.0716 O   0  0  0  0  0  0  0  0  0  0  0  0
  -12.6601    2.3363   18.1143 C   0  0  0  0  0  0  0  0  0  0  0  0
  -12.2111    2.8879   16.9259 C   0  0  0  0  0  0  0  0  0  0  0  0
  -12.8532    3.9803   16.3695 C   0  0  0  0  0  0  0  0  0  0  0  0
  -13.9501    4.5268   17.0075 C   0  0  0  0  0  0  0  0  0  0  0  0
  -14.4005    3.9572   18.1814 C   0  0  0  0  0  0  0  0  0  0  0  0
  -15.5913    3.5386   21.4269 C   0  0  0  0  0  0  0  0  0  0  0  0
  -15.4575    4.5122   18.7102 F   0  0  0  0  0  0  0  0  0  0  0  0
  3  1  1  1
  2  3  1  0
  2  5  1  0
  3 12  1  0
  4 12  1  0
  5  7  2  0
  5 11  1  0
  6 12  2  0
  7  8  1  0
  8  9  2  0
  9 10  1  0
 10 11  2  0
 11 13  1  0
M  CHG  1   4  -1
M  END
$$$$
