CypD-x0844-pandda-model
     RDKit          3D

 14 15  0  0  0  0  0  0  0  0999 V2000
  -15.8626    0.6742   17.0245 C   0  0  0  0  0  0  0  0  0  0  0  0
  -19.8047    1.7154   15.9658 N   0  0  0  0  0  0  0  0  0  0  0  0
  -17.2793    1.0366   16.6284 C   0  0  0  0  0  0  0  0  0  0  0  0
  -17.7695    2.1615   17.1111 N   0  0  0  0  0  0  0  0  0  0  0  0
  -18.0172    0.2155   15.8156 C   0  0  0  0  0  0  0  0  0  0  0  0
  -20.1299   -0.1698   14.6680 N   0  0  0  0  0  0  0  0  0  0  0  0
  -19.3068    0.5954   15.4860 C   0  0  0  0  0  0  0  0  0  0  0  0
  -21.7594   -0.6652   12.2872 N   0  0  0  0  0  0  0  0  0  0  0  0
  -19.0229    2.4152   16.7655 C   0  0  0  0  0  0  0  0  0  0  0  0
  -19.6309    3.6576   17.3681 C   0  0  0  0  0  0  0  0  0  0  0  0
  -21.6289   -0.0269   14.7147 C   0  0  0  0  0  0  0  0  0  0  0  0
  -22.2110    0.3089   13.3270 C   0  0  0  0  0  0  0  0  0  0  0  0
  -20.2662   -0.6968   12.1983 C   0  0  0  0  0  0  0  0  0  0  0  0
  -19.6013   -1.0272   13.5569 C   0  0  0  0  0  0  0  0  0  0  0  0
  1  3  1  0
  2  7  2  0
  2  9  1  0
  3  4  1  0
  3  5  2  0
  4  9  2  0
  5  7  1  0
  6  7  1  0
  6 11  1  0
  6 14  1  0
  8 12  1  0
  8 13  1  0
  9 10  1  0
 11 12  1  0
 13 14  1  0
M  CHG  1   8   1
M  END
$$$$
