CypD-x0617-pandda-model
     RDKit          3D

 13 14  0  0  1  0  0  0  0  0999 V2000
  -14.1211    3.8018   19.5379 C   0  0  0  0  0  0  0  0  0  0  0  0
  -13.4911    2.8713   20.5029 N   0  0  0  0  0  0  0  0  0  0  0  0
  -14.1118    1.7452   20.9857 C   0  0  0  0  0  0  0  0  0  0  0  0
  -15.1161    1.2503   20.2723 N   0  0  0  0  0  0  0  0  0  0  0  0
  -13.6395    1.1569   22.1546 C   0  0  0  0  0  0  0  0  0  0  0  0
  -13.5719    4.0262   15.8671 N   0  0  0  0  0  0  0  0  0  0  0  0
  -14.1951   -0.0155   22.6095 C   0  0  0  0  0  0  0  0  0  0  0  0
  -15.2147   -0.5522   21.8523 C   0  0  0  0  0  0  0  0  0  0  0  0
  -15.6285    0.1096   20.7104 C   0  0  0  0  0  0  0  0  0  0  0  0
  -13.8532    3.3488   18.0994 C   0  0  2  0  0  0  0  0  0  0  0  0
  -12.3779    3.1471   17.7426 C   0  0  0  0  0  0  0  0  0  0  0  0
  -12.2556    3.4776   16.2644 C   0  0  0  0  0  0  0  0  0  0  0  0
  -14.3410    4.3594   17.0771 C   0  0  0  0  0  0  0  0  0  0  0  0
  1  2  1  0
 10  1  1  1
  2  3  1  0
  3  4  2  0
  3  5  1  0
  4  9  1  0
  5  7  2  0
  6 12  1  0
  6 13  1  0
  7  8  1  0
  8  9  2  0
 10 11  1  0
 10 13  1  0
 11 12  1  0
M  CHG  1   6   1
M  END
$$$$
