CypD-x0973-pandda-model
     RDKit          3D

 12 13  0  0  0  0  0  0  0  0999 V2000
  -14.4300    4.1145   17.7380 C   0  0  0  0  0  0  0  0  0  0  0  0
   -9.5599    2.1037   20.0033 N   0  0  0  0  0  0  0  0  0  0  0  0
  -14.0206    2.6405   17.7818 C   0  0  0  0  0  0  0  0  0  0  0  0
  -13.0669    2.4781   20.1078 N   0  0  0  0  0  0  0  0  0  0  0  0
  -13.6442    2.1621   16.3805 C   0  0  0  0  0  0  0  0  0  0  0  0
  -12.8640    2.4684   18.7551 C   0  0  0  0  0  0  0  0  0  0  0  0
  -11.5363    2.2971   18.5135 C   0  0  0  0  0  0  0  0  0  0  0  0
  -10.8732    2.2213   19.7511 C   0  0  0  0  0  0  0  0  0  0  0  0
   -9.2408    2.1280   21.2763 C   0  0  0  0  0  0  0  0  0  0  0  0
  -10.1542    2.2410   22.3335 C   0  0  0  0  0  0  0  0  0  0  0  0
  -11.4960    2.3451   22.0743 C   0  0  0  0  0  0  0  0  0  0  0  0
  -11.8531    2.3417   20.7299 C   0  0  0  0  0  0  0  0  0  0  0  0
  1  3  1  0
  2  8  2  0
  2  9  1  0
  3  5  1  0
  3  6  1  0
  4  6  1  0
  4 12  1  0
  6  7  2  0
  7  8  1  0
  8 12  1  0
  9 10  2  0
 10 11  1  0
 11 12  2  0
M  END
$$$$
