CypD-x0974-pandda-model
     RDKit          3D

 14 15  0  0  1  0  0  0  0  0999 V2000
  -12.8650    3.3170   23.0630 C   0  0  0  0  0  0  0  0  0  0  0  0
  -13.6920    2.2530   20.9670 N   0  0  0  0  0  0  0  0  0  0  0  0
  -14.6570    4.1170   21.8000 O   0  0  0  0  0  0  0  0  0  0  0  0
  -13.8100    3.2570   21.8840 C   0  0  0  0  0  0  0  0  0  0  0  0
  -12.9910    0.9710   21.2360 C   0  0  0  0  0  0  0  0  0  0  0  0
  -13.6520   -0.0720   20.3380 C   0  0  0  0  0  0  0  0  0  0  0  0
  -14.8950    0.6050   19.7540 C   0  0  0  0  0  0  0  0  0  0  0  0
  -14.6390    2.1100   19.8380 C   0  0  2  0  0  0  0  0  0  0  0  0
  -14.0430    2.7430   18.5730 C   0  0  0  0  0  0  0  0  0  0  0  0
  -14.2910    4.0880   18.3330 C   0  0  0  0  0  0  0  0  0  0  0  0
  -13.7830    4.7170   17.2100 C   0  0  0  0  0  0  0  0  0  0  0  0
  -13.0070    4.0080   16.3130 C   0  0  0  0  0  0  0  0  0  0  0  0
  -12.7420    2.6710   16.5430 C   0  0  0  0  0  0  0  0  0  0  0  0
  -13.2650    2.0400   17.6580 C   0  0  0  0  0  0  0  0  0  0  0  0
  1  4  1  0
  2  4  1  0
  2  5  1  0
  2  8  1  0
  3  4  2  0
  5  6  1  0
  6  7  1  0
  7  8  1  0
  8  9  1  6
  9 10  2  0
  9 14  1  0
 10 11  1  0
 11 12  2  0
 12 13  1  0
 13 14  2  0
M  END
$$$$
