CypD-x0603-pandda-model
     RDKit          3D

 13 13  0  0  1  0  0  0  0  0999 V2000
  -19.6851   -0.2098   15.3830 C   0  0  0  0  0  0  0  0  0  0  0  0
  -18.5040   -1.4522   17.0429 N   0  0  0  0  0  0  0  0  0  0  0  0
  -16.5001   -1.2980   18.6110 O   0  0  0  0  0  0  0  0  0  0  0  0
  -17.8736   -1.7475   18.5674 S   0  0  0  0  0  0  0  0  0  0  0  0
  -19.1067   -0.1655   16.7900 C   0  0  1  0  0  0  0  0  0  0  0  0
  -16.2557    2.1283   16.8990 N   0  0  0  0  0  0  0  0  0  0  0  0
  -18.1812   -3.1358   18.7918 O   0  0  0  0  0  0  0  0  0  0  0  0
  -18.8339   -0.8003   19.7357 C   0  0  0  0  0  0  0  0  0  0  0  0
  -17.2334    2.9738   17.2920 N   0  0  0  0  0  0  0  0  0  0  0  0
  -18.0830    0.9542   16.8893 C   0  0  0  0  0  0  0  0  0  0  0  0
  -16.7565    0.9110   16.6318 C   0  0  0  0  0  0  0  0  0  0  0  0
  -18.3197    2.2681   17.2869 C   0  0  0  0  0  0  0  0  0  0  0  0
  -19.6498    2.8758   17.6854 C   0  0  0  0  0  0  0  0  0  0  0  0
  5  1  1  6
  2  4  1  0
  2  5  1  0
  3  4  2  0
  4  7  2  0
  4  8  1  0
  5 10  1  0
  6  9  1  0
  6 11  1  0
  9 12  2  0
 10 11  2  0
 10 12  1  0
 12 13  1  0
M  END
$$$$
