CypD-x0132-pandda-model
     RDKit          3D

 15 16  0  0  0  0  0  0  0  0999 V2000
  -19.4260    0.3940   19.8960 C   0  0  0  0  0  0  0  0  0  0  0  0
  -18.2830    0.8080   19.0340 N   0  0  0  0  0  0  0  0  0  0  0  0
  -17.9880    2.7520   20.1140 O   0  0  0  0  0  0  0  0  0  0  0  0
  -18.1330   -0.0040   17.7910 C   0  0  0  0  0  0  0  0  0  0  0  0
  -16.0720    3.5620   18.2690 O   0  0  0  0  0  0  0  0  0  0  0  0
  -17.5680    1.9690   19.2750 C   0  0  0  0  0  0  0  0  0  0  0  0
  -16.3410    2.2840   18.5710 C   0  0  0  0  0  0  0  0  0  0  0  0
  -15.3310    1.4980   18.1150 C   0  0  0  0  0  0  0  0  0  0  0  0
  -14.4000    2.3280   17.4680 C   0  0  0  0  0  0  0  0  0  0  0  0
  -13.1800    2.1480   16.8070 C   0  0  0  0  0  0  0  0  0  0  0  0
  -12.5360    3.2380   16.2500 C   0  0  0  0  0  0  0  0  0  0  0  0
  -13.0980    4.5150   16.3350 C   0  0  0  0  0  0  0  0  0  0  0  0
  -14.2850    4.6800   17.0090 C   0  0  0  0  0  0  0  0  0  0  0  0
  -14.9330    3.5960   17.5810 C   0  0  0  0  0  0  0  0  0  0  0  0
  -14.8130    5.8720   17.1050 F   0  0  0  0  0  0  0  0  0  0  0  0
  1  2  1  0
  2  4  1  0
  2  6  1  0
  3  6  2  0
  5  7  1  0
  5 14  1  0
  6  7  1  0
  7  8  2  0
  8  9  1  0
  9 10  1  0
  9 14  2  0
 10 11  2  0
 11 12  1  0
 12 13  2  0
 13 14  1  0
 13 15  1  0
M  END
$$$$
