CypD-x0385-pandda-model
     RDKit          3D

 14 15  0  0  0  0  0  0  0  0999 V2000
  -14.4623   -0.0308   21.1346 C   0  0  0  0  0  0  0  0  0  0  0  0
  -15.5176    1.0151   21.2750 N   0  0  0  0  0  0  0  0  0  0  0  0
  -16.1756    3.1814   21.1328 O   0  0  0  0  0  0  0  0  0  0  0  0
  -16.8866    0.4524   21.3743 C   0  0  0  0  0  0  0  0  0  0  0  0
  -13.2996    2.9845   19.9587 N   0  0  0  0  0  0  0  0  0  0  0  0
  -17.8143    0.9397   22.4433 C   0  0  0  0  0  0  0  0  0  0  0  0
  -12.1144    2.3885   19.6572 N   0  0  0  0  0  0  0  0  0  0  0  0
  -17.2105   -0.4247   22.5435 C   0  0  0  0  0  0  0  0  0  0  0  0
  -15.2780    2.3700   21.2346 C   0  0  0  0  0  0  0  0  0  0  0  0
  -13.8734    2.9207   21.3096 C   0  0  0  0  0  0  0  0  0  0  0  0
  -13.8108    3.6425   18.8933 C   0  0  0  0  0  0  0  0  0  0  0  0
  -12.9300    3.4461   17.8996 C   0  0  0  0  0  0  0  0  0  0  0  0
  -11.9015    2.6682   18.3989 C   0  0  0  0  0  0  0  0  0  0  0  0
  -13.0564    4.1306   16.0964 Br  0  0  0  0  0  0  0  0  0  0  0  0
  1  2  1  0
  2  4  1  0
  2  9  1  0
  3  9  2  0
  4  6  1  0
  4  8  1  0
  5  7  1  0
  5 10  1  0
  5 11  1  0
  6  8  1  0
  7 13  2  0
  9 10  1  0
 11 12  2  0
 12 13  1  0
 12 14  1  0
M  END
$$$$
