CypD-x0090-pandda-model
     RDKit          3D

 12 12  0  0  0  0  0  0  0  0999 V2000
  -19.1650    3.6935   17.7601 C   0  0  0  0  0  0  0  0  0  0  0  0
  -17.2268    2.2589   17.2924 N   0  0  0  0  0  0  0  0  0  0  0  0
  -21.4037   -0.7965   17.6468 O   0  0  0  0  0  0  0  0  0  0  0  0
  -18.5127    2.4257   17.2512 C   0  0  0  0  0  0  0  0  0  0  0  0
  -17.0202    1.0343   16.7709 N   0  0  0  0  0  0  0  0  0  0  0  0
  -15.6747    0.4522   16.6823 C   0  0  0  0  0  0  0  0  0  0  0  0
  -21.8520    1.0996   18.6900 N   0  0  0  0  0  0  0  0  0  0  0  0
  -18.1816    0.4479   16.4150 C   0  0  0  0  0  0  0  0  0  0  0  0
  -18.2821   -0.9493   15.8200 C   0  0  0  0  0  0  0  0  0  0  0  0
  -19.1678    1.3227   16.7074 C   0  0  0  0  0  0  0  0  0  0  0  0
  -20.6674    1.1342   16.4989 C   0  0  0  0  0  0  0  0  0  0  0  0
  -21.3251    0.4077   17.6596 C   0  0  0  0  0  0  0  0  0  0  0  0
  1  4  1  0
  2  4  2  0
  2  5  1  0
  3 12  2  0
  4 10  1  0
  5  6  1  0
  5  8  1  0
  7 12  1  0
  8  9  1  0
  8 10  2  0
 10 11  1  0
 11 12  1  0
M  END
$$$$
