CypD-x0094-pandda-model
     RDKit          3D

 15 16  0  0  0  0  0  0  0  0999 V2000
  -14.3010    5.2150   16.6330 C   0  0  0  0  0  0  0  0  0  0  0  0
  -14.2850    4.1940   17.6790 N   0  0  0  0  0  0  0  0  0  0  0  0
  -10.4980    2.6250   19.0160 O   0  0  0  0  0  0  0  0  0  0  0  0
  -15.3370    3.5350   18.2010 C   0  0  0  0  0  0  0  0  0  0  0  0
  -12.5620    2.1250   19.8480 N   0  0  0  0  0  0  0  0  0  0  0  0
  -14.8440    2.6710   19.1120 C   0  0  0  0  0  0  0  0  0  0  0  0
  -10.9360    1.0340   21.9880 N   0  0  0  0  0  0  0  0  0  0  0  0
  -13.4660    2.8620   19.0740 C   0  0  0  0  0  0  0  0  0  0  0  0
  -12.1960    0.7760   22.3990 N   0  0  0  0  0  0  0  0  0  0  0  0
  -11.2100    1.9780   19.7470 C   0  0  0  0  0  0  0  0  0  0  0  0
  -13.1290    3.7860   18.2300 N   0  0  0  0  0  0  0  0  0  0  0  0
  -10.5350    0.9160   20.5820 C   0  0  0  0  0  0  0  0  0  0  0  0
  -10.1390    1.3540   23.0230 C   0  0  0  0  0  0  0  0  0  0  0  0
  -10.8960    1.3000   24.1380 C   0  0  0  0  0  0  0  0  0  0  0  0
  -12.1590    0.9350   23.6890 C   0  0  0  0  0  0  0  0  0  0  0  0
  1  2  1  0
  2  4  1  0
  2 11  1  0
  3 10  2  0
  4  6  2  0
  5  8  1  0
  5 10  1  0
  6  8  1  0
  7  9  1  0
  7 12  1  0
  7 13  1  0
  8 11  2  0
  9 15  2  0
 10 12  1  0
 13 14  2  0
 14 15  1  0
M  END
$$$$
