CypD-x0928-pandda-model
     RDKit          3D

 10 11  0  0  0  0  0  0  0  0999 V2000
  -19.6683    1.5183   15.9156 C   0  0  0  0  0  0  0  0  0  0  0  0
  -17.2173    3.1101   18.1633 N   0  0  0  0  0  0  0  0  0  0  0  0
  -18.4543    1.9106   16.7381 C   0  0  0  0  0  0  0  0  0  0  0  0
  -16.5040    2.0755   17.6643 N   0  0  0  0  0  0  0  0  0  0  0  0
  -18.3861    3.0012   17.5988 C   0  0  0  0  0  0  0  0  0  0  0  0
  -15.2173   -0.0475   16.2889 N   0  0  0  0  0  0  0  0  0  0  0  0
  -15.0841    1.8361   17.9494 C   0  0  0  0  0  0  0  0  0  0  0  0
  -14.4550    1.1616   16.7272 C   0  0  0  0  0  0  0  0  0  0  0  0
  -16.6778    0.1231   16.0824 C   0  0  0  0  0  0  0  0  0  0  0  0
  -17.2327    1.3366   16.8088 C   0  0  0  0  0  0  0  0  0  0  0  0
  1  3  1  0
  2  4  1  0
  2  5  2  0
  3  5  1  0
  3 10  2  0
  4  7  1  0
  4 10  1  0
  6  8  1  0
  6  9  1  0
  7  8  1  0
  9 10  1  0
M  CHG  1   6   1
M  END
$$$$
