CypD-x0416-pandda-model
     RDKit          3D

 13 13  0  0  0  0  0  0  0  0999 V2000
  -10.3932    2.1589   22.4951 C   0  0  0  0  0  0  0  0  0  0  0  0
  -12.3640    2.3019   19.8006 N   0  0  0  0  0  0  0  0  0  0  0  0
  -10.1549    2.5713   19.3705 O   0  0  0  0  0  0  0  0  0  0  0  0
  -10.6503    1.2776   21.2621 C   0  0  0  0  0  0  0  0  0  0  0  0
  -15.2955    3.6582   21.3721 N   0  0  0  0  0  0  0  0  0  0  0  0
  -11.0348    2.1009   20.0478 C   0  0  0  0  0  0  0  0  0  0  0  0
  -12.9859    3.0691   18.7934 C   0  0  0  0  0  0  0  0  0  0  0  0
  -12.3984    3.2157   17.5385 C   0  0  0  0  0  0  0  0  0  0  0  0
  -12.9942    3.9801   16.5546 C   0  0  0  0  0  0  0  0  0  0  0  0
  -14.2057    4.5947   16.8026 C   0  0  0  0  0  0  0  0  0  0  0  0
  -14.8156    4.4442   18.0303 C   0  0  0  0  0  0  0  0  0  0  0  0
  -14.2120    3.7040   19.0395 C   0  0  0  0  0  0  0  0  0  0  0  0
  -14.8383    3.6436   20.3271 C   0  0  0  0  0  0  0  0  0  0  0  0
  1  4  1  0
  2  6  1  0
  2  7  1  0
  3  6  2  0
  4  6  1  0
  5 13  3  0
  7  8  2  0
  7 12  1  0
  8  9  1  0
  9 10  2  0
 10 11  1  0
 11 12  2  0
 12 13  1  0
M  END
$$$$
