CypD-x0122-pandda-model
     RDKit          3D

 15 15  0  0  0  0  0  0  0  0999 V2000
  -17.8401   -3.6666   14.8153 C   0  0  0  0  0  0  0  0  0  0  0  0
  -17.9941   -2.8116   12.5239 N   0  0  0  0  0  0  0  0  0  0  0  0
  -16.5517   -1.8993   13.9679 O   0  0  0  0  0  0  0  0  0  0  0  0
  -23.3473   -0.5667    9.1925 S   0  0  0  0  0  0  0  0  0  0  0  0
  -17.4025   -2.7186   13.7312 C   0  0  0  0  0  0  0  0  0  0  0  0
  -23.6496   -1.6893    8.0140 N   0  0  0  0  0  0  0  0  0  0  0  0
  -23.2822    0.6881    8.4797 O   0  0  0  0  0  0  0  0  0  0  0  0
  -17.7764   -1.8924   11.3932 C   0  0  0  0  0  0  0  0  0  0  0  0
  -24.3898   -0.8342   10.1483 O   0  0  0  0  0  0  0  0  0  0  0  0
  -19.1470   -1.5666   10.8332 C   0  0  0  0  0  0  0  0  0  0  0  0
  -19.7838   -0.3885   11.1806 C   0  0  0  0  0  0  0  0  0  0  0  0
  -21.0497   -0.1127   10.6959 C   0  0  0  0  0  0  0  0  0  0  0  0
  -21.7079   -0.9924    9.8458 C   0  0  0  0  0  0  0  0  0  0  0  0
  -21.0574   -2.1772    9.5143 C   0  0  0  0  0  0  0  0  0  0  0  0
  -19.7924   -2.4615    9.9982 C   0  0  0  0  0  0  0  0  0  0  0  0
  1  5  1  0
  2  5  1  0
  2  8  1  0
  3  5  2  0
  4  6  1  0
  4  7  2  0
  4  9  2  0
  4 13  1  0
  8 10  1  0
 10 11  2  0
 10 15  1  0
 11 12  1  0
 12 13  2  0
 13 14  1  0
 14 15  2  0
M  END
$$$$
