CypD-x0539-pandda-model
     RDKit          3D

 15 15  0  0  0  0  0  0  0  0999 V2000
  -16.5940   -4.3980   10.8590 C   0  0  0  0  0  0  0  0  0  0  0  0
  -17.3110   -3.0950   10.9430 N   0  0  0  0  0  0  0  0  0  0  0  0
  -17.9980   -1.2800   12.0700 O   0  0  0  0  0  0  0  0  0  0  0  0
  -18.6890    0.3310   15.9480 S   0  0  0  0  0  0  0  0  0  0  0  0
  -17.7360   -2.5090    9.6420 C   0  0  0  0  0  0  0  0  0  0  0  0
  -17.5430   -2.1070   14.6280 N   0  0  0  0  0  0  0  0  0  0  0  0
  -15.4340   -1.4670   14.8230 O   0  0  0  0  0  0  0  0  0  0  0  0
  -17.5600   -2.4090   12.1070 C   0  0  0  0  0  0  0  0  0  0  0  0
  -17.0550    1.8650   17.1540 N   0  0  0  0  0  0  0  0  0  0  0  0
  -17.3160   -3.0500   13.4850 C   0  0  0  0  0  0  0  0  0  0  0  0
  -16.5990   -1.2560   15.1130 C   0  0  0  0  0  0  0  0  0  0  0  0
  -16.9910   -0.1030   15.8860 C   0  0  0  0  0  0  0  0  0  0  0  0
  -18.2970    1.7340   16.9000 C   0  0  0  0  0  0  0  0  0  0  0  0
  -16.3230    0.8280   16.6090 C   0  0  0  0  0  0  0  0  0  0  0  0
  -14.8330    0.8510   16.8900 C   0  0  0  0  0  0  0  0  0  0  0  0
  1  2  1  0
  2  5  1  0
  2  8  1  0
  3  8  2  0
  4 12  1  0
  4 13  1  0
  6 10  1  0
  6 11  1  0
  7 11  2  0
  8 10  1  0
  9 13  2  0
  9 14  1  0
 11 12  1  0
 12 14  2  0
 14 15  1  0
M  END
$$$$
