CypD-x0879-pandda-model
     RDKit          3D

 13 13  0  0  0  0  0  0  0  0999 V2000
  -13.4730   -0.3460   20.3080 C   0  0  0  0  0  0  0  0  0  0  0  0
  -11.4250    0.8180   19.5440 N   0  0  0  0  0  0  0  0  0  0  0  0
  -10.1360    2.6350   19.3200 O   0  0  0  0  0  0  0  0  0  0  0  0
  -12.5750   -0.0210   19.1140 C   0  0  0  0  0  0  0  0  0  0  0  0
  -15.6910    4.0600   19.1360 N   0  0  0  0  0  0  0  0  0  0  0  0
  -10.3880    0.1070   20.3510 C   0  0  0  0  0  0  0  0  0  0  0  0
  -11.2210    2.1160   19.1200 C   0  0  0  0  0  0  0  0  0  0  0  0
  -12.2550    2.9020   18.4730 C   0  0  0  0  0  0  0  0  0  0  0  0
  -12.0390    3.4980   17.2310 C   0  0  0  0  0  0  0  0  0  0  0  0
  -13.0050    4.2940   16.6400 C   0  0  0  0  0  0  0  0  0  0  0  0
  -14.2130    4.4990   17.2780 C   0  0  0  0  0  0  0  0  0  0  0  0
  -14.4710    3.9000   18.5030 C   0  0  0  0  0  0  0  0  0  0  0  0
  -13.4840    3.1240   19.0880 C   0  0  0  0  0  0  0  0  0  0  0  0
  1  4  1  0
  2  4  1  0
  2  6  1  0
  2  7  1  0
  3  7  2  0
  5 12  1  0
  7  8  1  0
  8  9  2  0
  8 13  1  0
  9 10  1  0
 10 11  2  0
 11 12  1  0
 12 13  2  0
M  END
$$$$
