CypD-x0309-pandda-model
     RDKit          3D

 15 16  0  0  0  0  0  0  0  0999 V2000
  -25.2153   -0.4323   10.6393 C   0  0  0  0  0  0  0  0  0  0  0  0
  -23.3179   -2.1476    8.7541 N   0  0  0  0  0  0  0  0  0  0  0  0
  -23.0437   -0.1927   12.1019 O   0  0  0  0  0  0  0  0  0  0  0  0
  -23.4543   -0.1774   10.7108 S   0  0  0  0  0  0  0  0  0  0  0  0
  -22.8414   -1.6759    9.8775 C   0  0  0  0  0  0  0  0  0  0  0  0
  -21.8043   -2.4254   10.3498 N   0  0  0  0  0  0  0  0  0  0  0  0
  -23.0857    0.9613    9.8980 O   0  0  0  0  0  0  0  0  0  0  0  0
  -18.2871    0.5926   11.8175 S   0  0  0  0  0  0  0  0  0  0  0  0
  -22.5715   -3.2294    8.4890 C   0  0  0  0  0  0  0  0  0  0  0  0
  -18.6670   -1.9144   11.2618 N   0  0  0  0  0  0  0  0  0  0  0  0
  -21.6434   -3.4092    9.4462 C   0  0  0  0  0  0  0  0  0  0  0  0
  -21.0304   -2.3545   11.6165 C   0  0  0  0  0  0  0  0  0  0  0  0
  -19.8119   -1.4566   11.5114 C   0  0  0  0  0  0  0  0  0  0  0  0
  -19.9894    0.0279   11.7638 C   0  0  0  0  0  0  0  0  0  0  0  0
  -17.5581   -0.9601   11.2560 C   0  0  0  0  0  0  0  0  0  0  0  0
  1  4  1  0
  2  5  2  0
  2  9  1  0
  3  4  2  0
  4  5  1  0
  4  7  2  0
  5  6  1  0
  6 11  1  0
  6 12  1  0
  8 14  1  0
  8 15  1  0
  9 11  2  0
 10 13  2  0
 10 15  1  0
 12 13  1  0
 13 14  1  0
M  END
$$$$
