CypD-x0310-pandda-model
     RDKit          3D

 14 14  0  0  0  0  0  0  0  0999 V2000
  -16.3945   -0.3393   17.6653 C   0  0  0  0  0  0  0  0  0  0  0  0
  -16.4640    1.0579   17.1551 N   0  0  0  0  0  0  0  0  0  0  0  0
  -19.7222   -0.3512   12.8885 O   0  0  0  0  0  0  0  0  0  0  0  0
  -15.1898    1.8107   17.2755 C   0  0  0  0  0  0  0  0  0  0  0  0
  -20.8497    0.7833   14.4249 N   0  0  0  0  0  0  0  0  0  0  0  0
  -17.6927    1.7010   17.1556 C   0  0  0  0  0  0  0  0  0  0  0  0
  -17.7861    2.8524   17.8103 N   0  0  0  0  0  0  0  0  0  0  0  0
  -18.7698    1.1126   16.4995 C   0  0  0  0  0  0  0  0  0  0  0  0
  -20.0233    1.6813   16.5397 C   0  0  0  0  0  0  0  0  0  0  0  0
  -21.2162    1.0547   15.8318 C   0  0  0  0  0  0  0  0  0  0  0  0
  -20.3911   -0.3682   13.8915 C   0  0  0  0  0  0  0  0  0  0  0  0
  -20.6596   -1.6886   14.5707 C   0  0  0  0  0  0  0  0  0  0  0  0
  -20.1271    2.8488   17.2734 C   0  0  0  0  0  0  0  0  0  0  0  0
  -19.0026    3.3828   17.8715 C   0  0  0  0  0  0  0  0  0  0  0  0
  1  2  1  0
  2  4  1  0
  2  6  1  0
  3 11  2  0
  5 10  1  0
  5 11  1  0
  6  7  2  0
  6  8  1  0
  7 14  1  0
  8  9  2  0
  9 10  1  0
  9 13  1  0
 11 12  1  0
 13 14  2  0
M  END
$$$$
