CypD-x0543-pandda-model
     RDKit          3D

  9  9  0  0  0  0  0  0  0  0999 V2000
  -12.7930    1.5760   18.9020 C   0  0  0  0  0  0  0  0  0  0  0  0
  -16.0940    4.2410   20.1050 O   0  0  0  0  0  0  0  0  0  0  0  0
  -14.6220    4.9290   17.4840 S   0  0  0  0  0  0  0  0  0  0  0  0
  -13.3240    2.8320   18.2300 C   0  0  0  0  0  0  0  0  0  0  0  0
  -15.7800    2.1430   19.9640 O   0  0  0  0  0  0  0  0  0  0  0  0
  -12.4850    3.3430   17.0650 C   0  0  0  0  0  0  0  0  0  0  0  0
  -13.0440    4.6890   16.5810 C   0  0  0  0  0  0  0  0  0  0  0  0
  -14.4450    3.5040   18.5650 C   0  0  0  0  0  0  0  0  0  0  0  0
  -15.4810    3.2860   19.5800 C   0  0  0  0  0  0  0  0  0  0  0  0
  1  4  1  0
  2  9  1  0
  3  7  1  0
  3  8  1  0
  4  6  1  0
  4  8  2  0
  5  9  2  0
  6  7  1  0
  8  9  1  0
M  CHG  1   2  -1
M  END
$$$$
