CypD-x0945-pandda-model
     RDKit          3D

 12 13  0  0  0  0  0  0  0  0999 V2000
  -12.0795    0.3885   21.6948 C   0  0  0  0  0  0  0  0  0  0  0  0
  -12.2060    1.2881   20.5117 N   0  0  0  0  0  0  0  0  0  0  0  0
  -13.2773    1.8392   19.9198 C   0  0  0  0  0  0  0  0  0  0  0  0
  -14.4792    1.7075   20.4879 N   0  0  0  0  0  0  0  0  0  0  0  0
  -15.6033    2.3651   20.0371 C   0  0  0  0  0  0  0  0  0  0  0  0
  -15.5225    3.1720   18.9526 C   0  0  0  0  0  0  0  0  0  0  0  0
  -14.2957    3.3177   18.2484 C   0  0  0  0  0  0  0  0  0  0  0  0
  -14.1852    4.1179   17.1042 C   0  0  0  0  0  0  0  0  0  0  0  0
  -13.0183    4.1637   16.3849 C   0  0  0  0  0  0  0  0  0  0  0  0
  -11.9258    3.4086   16.7948 C   0  0  0  0  0  0  0  0  0  0  0  0
  -11.9990    2.6501   17.9350 C   0  0  0  0  0  0  0  0  0  0  0  0
  -13.1711    2.6019   18.7086 C   0  0  0  0  0  0  0  0  0  0  0  0
  1  2  1  0
  2  3  1  0
  3  4  2  0
  3 12  1  0
  4  5  1  0
  5  6  2  0
  6  7  1  0
  7  8  1  0
  7 12  2  0
  8  9  2  0
  9 10  1  0
 10 11  2  0
 11 12  1  0
M  CHG  1   4   1
M  END
$$$$
