CypD-x0217-pandda-model
     RDKit          3D

 16 17  0  0  0  0  0  0  0  0999 V2000
  -19.3446    4.4780   21.3457 C   0  0  0  0  0  0  0  0  0  0  0  0
  -15.4984    2.3380   22.1640 N   0  0  0  0  0  0  0  0  0  0  0  0
  -17.9859    4.3954   21.6601 O   0  0  0  0  0  0  0  0  0  0  0  0
  -17.6767    3.4462   22.6477 C   0  0  0  0  0  0  0  0  0  0  0  0
  -14.3657    3.5364   19.8478 N   0  0  0  0  0  0  0  0  0  0  0  0
  -15.5678    4.2256   23.3692 O   0  0  0  0  0  0  0  0  0  0  0  0
  -16.1599    3.3481   22.7826 C   0  0  0  0  0  0  0  0  0  0  0  0
  -12.6041    2.1912   19.9683 N   0  0  0  0  0  0  0  0  0  0  0  0
  -14.0226    2.2843   22.0097 C   0  0  0  0  0  0  0  0  0  0  0  0
  -13.6348    2.6594   20.5881 C   0  0  0  0  0  0  0  0  0  0  0  0
  -13.7398    3.6300   18.6518 C   0  0  0  0  0  0  0  0  0  0  0  0
  -14.0053    4.3555   17.4882 C   0  0  0  0  0  0  0  0  0  0  0  0
  -13.1601    4.1983   16.4148 C   0  0  0  0  0  0  0  0  0  0  0  0
  -12.0648    3.3315   16.4930 C   0  0  0  0  0  0  0  0  0  0  0  0
  -11.8072    2.6252   17.6454 C   0  0  0  0  0  0  0  0  0  0  0  0
  -12.6554    2.7788   18.7389 C   0  0  0  0  0  0  0  0  0  0  0  0
  1  3  1  0
  2  7  1  0
  2  9  1  0
  3  4  1  0
  4  7  1  0
  5 10  1  0
  5 11  1  0
  6  7  2  0
  8 10  2  0
  8 16  1  0
  9 10  1  0
 11 12  2  0
 11 16  1  0
 12 13  1  0
 13 14  2  0
 14 15  1  0
 15 16  2  0
M  END
$$$$
