CypD-x0555-pandda-model
     RDKit          3D

 10 10  0  0  1  0  0  0  0  0999 V2000
  -21.1510   -1.1860   15.9850 C   0  0  0  0  0  0  0  0  0  0  0  0
  -18.7450    0.8140   15.7490 N   0  0  0  0  0  0  0  0  0  0  0  0
  -20.6290   -1.6650   13.7560 O   0  0  0  0  0  0  0  0  0  0  0  0
  -20.4970   -0.6700   14.7010 C   0  0  2  0  0  0  0  0  0  0  0  0
  -17.6740    2.2400   17.0900 N   0  0  0  0  0  0  0  0  0  0  0  0
  -19.0030   -0.3510   14.8580 C   0  0  0  0  0  0  0  0  0  0  0  0
  -19.5790    1.8350   16.0180 C   0  0  0  0  0  0  0  0  0  0  0  0
  -18.9220    2.6830   16.8330 C   0  0  0  0  0  0  0  0  0  0  0  0
  -17.6120    1.1200   16.4370 C   0  0  0  0  0  0  0  0  0  0  0  0
  -16.3910    0.2220   16.4500 C   0  0  0  0  0  0  0  0  0  0  0  0
  4  1  1  1
  2  6  1  0
  2  7  1  0
  2  9  1  0
  3  4  1  0
  4  6  1  0
  5  8  1  0
  5  9  2  0
  7  8  2  0
  9 10  1  0
M  END
$$$$
