CypD-x0114-pandda-model
     RDKit          3D

 11 11  0  0  0  0  0  0  0  0999 V2000
  -15.4592    0.2947   13.6110 C   0  0  0  0  0  0  0  0  0  0  0  0
  -16.7863    1.4872   17.7221 N   0  0  0  0  0  0  0  0  0  0  0  0
  -14.9824    0.0333   14.9245 O   0  0  0  0  0  0  0  0  0  0  0  0
  -15.3619    0.8946   15.9095 C   0  0  0  0  0  0  0  0  0  0  0  0
  -16.6461    3.5044   18.6657 O   0  0  0  0  0  0  0  0  0  0  0  0
  -14.6598    2.1185   16.0667 C   0  0  0  0  0  0  0  0  0  0  0  0
  -15.0699    2.9994   17.0211 C   0  0  0  0  0  0  0  0  0  0  0  0
  -16.1834    2.7069   17.8580 C   0  0  0  0  0  0  0  0  0  0  0  0
  -16.3872    0.5838   16.7506 C   0  0  0  0  0  0  0  0  0  0  0  0
  -14.9302    1.4356   13.1924 F   0  0  0  0  0  0  0  0  0  0  0  0
  -16.7754    0.5080   13.6647 F   0  0  0  0  0  0  0  0  0  0  0  0
  1  3  1  0
  1 10  1  0
  1 11  1  0
  2  8  1  0
  2  9  1  0
  3  4  1  0
  4  6  1  0
  4  9  2  0
  5  8  2  0
  6  7  2  0
  7  8  1  0
M  END
$$$$
