CypD-x0290-pandda-model
     RDKit          3D

 13 13  0  0  0  0  0  0  0  0999 V2000
  -13.3170   -0.5420   20.5020 C   0  0  0  0  0  0  0  0  0  0  0  0
  -11.2940    0.6270   19.6820 N   0  0  0  0  0  0  0  0  0  0  0  0
  -10.0150    2.4400   19.3870 O   0  0  0  0  0  0  0  0  0  0  0  0
  -12.4510   -0.2200   19.2850 C   0  0  0  0  0  0  0  0  0  0  0  0
  -15.5500    3.9060   19.4600 N   0  0  0  0  0  0  0  0  0  0  0  0
  -10.2310   -0.0680   20.4680 C   0  0  0  0  0  0  0  0  0  0  0  0
  -11.1090    1.9220   19.2390 C   0  0  0  0  0  0  0  0  0  0  0  0
  -12.1660    2.7080   18.6320 C   0  0  0  0  0  0  0  0  0  0  0  0
  -12.0030    3.3020   17.3800 C   0  0  0  0  0  0  0  0  0  0  0  0
  -12.9890    4.1020   16.8320 C   0  0  0  0  0  0  0  0  0  0  0  0
  -14.1660    4.3160   17.5250 C   0  0  0  0  0  0  0  0  0  0  0  0
  -14.3680    3.7260   18.7650 C   0  0  0  0  0  0  0  0  0  0  0  0
  -13.3630    2.9390   19.3030 C   0  0  0  0  0  0  0  0  0  0  0  0
  1  4  1  0
  2  4  1  0
  2  6  1  0
  2  7  1  0
  3  7  2  0
  5 12  1  0
  7  8  1  0
  8  9  2  0
  8 13  1  0
  9 10  1  0
 10 11  2  0
 11 12  1  0
 12 13  2  0
M  END
$$$$
