CypD-x0543-pandda-model
     RDKit          3D

  9  9  0  0  1  0  0  0  0  0999 V2000
  -14.4980    1.1416   19.2168 C   0  0  0  0  0  0  0  0  0  0  0  0
  -15.8063    4.1487   21.1289 O   0  0  0  0  0  0  0  0  0  0  0  0
  -13.8881    4.9504   18.0056 S   0  0  0  0  0  0  0  0  0  0  0  0
  -14.4900    2.4030   18.3443 C   0  0  2  0  0  0  0  0  0  0  0  0
  -16.8328    4.2757   19.2537 O   0  0  0  0  0  0  0  0  0  0  0  0
  -13.2504    2.4497   17.4328 C   0  0  0  0  0  0  0  0  0  0  0  0
  -13.1660    3.8353   16.7873 C   0  0  0  0  0  0  0  0  0  0  0  0
  -14.4793    3.6860   19.1873 C   0  0  2  0  0  0  0  0  0  0  0  0
  -15.7981    4.0428   19.8924 C   0  0  0  0  0  0  0  0  0  0  0  0
  4  1  1  1
  2  9  1  0
  3  7  1  0
  3  8  1  0
  4  6  1  0
  4  8  1  0
  5  9  2  0
  6  7  1  0
  8  9  1  6
M  CHG  1   2  -1
M  END
$$$$
