CypD-x0568-pandda-model
     RDKit          3D

  9  9  0  0  1  0  0  0  0  0999 V2000
  -14.5134   -0.5102   18.4595 C   0  0  0  0  0  0  0  0  0  0  0  0
  -17.0284    2.6129   17.2763 N   0  0  0  0  0  0  0  0  0  0  0  0
  -15.2261    0.3688   17.6503 O   0  0  0  0  0  0  0  0  0  0  0  0
  -19.1151    1.0799   16.9928 S   0  0  0  0  0  0  0  0  0  0  0  0
  -16.6082    0.1507   17.6364 C   0  0  0  0  0  0  0  0  0  0  0  0
  -18.1672    3.3886   17.5455 N   0  0  0  0  0  0  0  0  0  0  0  0
  -17.3055    1.2263   16.7932 C   0  0  2  0  0  0  0  0  0  0  0  0
  -20.5178    3.1929   17.8168 N   0  0  0  0  0  0  0  0  0  0  0  0
  -19.2630    2.7555   17.5014 C   0  0  0  0  0  0  0  0  0  0  0  0
  1  3  1  0
  2  6  1  0
  2  7  1  0
  3  5  1  0
  4  7  1  0
  4  9  1  0
  7  5  1  1
  6  9  2  0
  8  9  1  0
M  END
$$$$
