CypD-x0100-pandda-model
     RDKit          3D

 15 16  0  0  0  0  0  0  0  0999 V2000
  -12.2463    2.2019   20.9636 C   0  0  0  0  0  0  0  0  0  0  0  0
  -12.1596    2.7081   19.5794 N   0  0  0  0  0  0  0  0  0  0  0  0
  -14.8899    3.8285   20.1371 O   0  0  0  0  0  0  0  0  0  0  0  0
  -11.2632    3.3260   17.7879 C   0  0  0  0  0  0  0  0  0  0  0  0
  -10.9611    2.8283   18.9548 N   0  0  0  0  0  0  0  0  0  0  0  0
  -12.6153    3.5308   17.6503 C   0  0  0  0  0  0  0  0  0  0  0  0
  -15.4985    2.3368   18.5628 N   0  0  0  0  0  0  0  0  0  0  0  0
  -13.1948    3.1242   18.8012 C   0  0  0  0  0  0  0  0  0  0  0  0
  -14.5648    3.1297   19.1926 C   0  0  0  0  0  0  0  0  0  0  0  0
  -16.9313    2.3347   18.9637 C   0  0  0  0  0  0  0  0  0  0  0  0
  -17.3629    0.9044   19.3000 C   0  0  0  0  0  0  0  0  0  0  0  0
  -17.1061   -0.0437   18.1191 C   0  0  0  0  0  0  0  0  0  0  0  0
  -15.6418    0.0418   17.6624 C   0  0  0  0  0  0  0  0  0  0  0  0
  -15.2226    1.4868   17.3710 C   0  0  0  0  0  0  0  0  0  0  0  0
  -13.3911    4.2133   16.2393 Cl  0  0  0  0  0  0  0  0  0  0  0  0
  1  2  1  0
  2  5  1  0
  2  8  1  0
  3  9  2  0
  4  5  2  0
  4  6  1  0
  6  8  2  0
  6 15  1  0
  7  9  1  0
  7 10  1  0
  7 14  1  0
  8  9  1  0
 10 11  1  0
 11 12  1  0
 12 13  1  0
 13 14  1  0
M  END
$$$$
