CypD-x0638-pandda-model
     RDKit          3D

 15 16  0  0  0  0  0  0  0  0999 V2000
  -17.9580   -3.5990    9.0830 C   0  0  0  0  0  0  0  0  0  0  0  0
  -22.9630   -1.5030    9.3730 N   0  0  0  0  0  0  0  0  0  0  0  0
  -22.8910    0.5860    8.6540 O   0  0  0  0  0  0  0  0  0  0  0  0
  -19.4880   -0.2670   10.6880 S   0  0  0  0  0  0  0  0  0  0  0  0
  -18.7230   -2.4290    9.6590 C   0  0  0  0  0  0  0  0  0  0  0  0
  -25.1810   -0.7120    5.4810 N   0  0  0  0  0  0  0  0  0  0  0  0
  -18.1980   -1.2860   10.1240 C   0  0  0  0  0  0  0  0  0  0  0  0
  -24.0910   -0.3230    6.1590 N   0  0  0  0  0  0  0  0  0  0  0  0
  -20.6330   -1.5180   10.2460 C   0  0  0  0  0  0  0  0  0  0  0  0
  -20.1000   -2.5530    9.7220 N   0  0  0  0  0  0  0  0  0  0  0  0
  -22.0980   -1.2430   10.5500 C   0  0  0  0  0  0  0  0  0  0  0  0
  -23.3460   -0.5370    8.4920 C   0  0  0  0  0  0  0  0  0  0  0  0
  -24.2260   -0.8270    7.3710 C   0  0  0  0  0  0  0  0  0  0  0  0
  -25.3700   -1.6320    7.4300 C   0  0  0  0  0  0  0  0  0  0  0  0
  -25.9470   -1.5400    6.2150 C   0  0  0  0  0  0  0  0  0  0  0  0
  1  5  1  0
  2 11  1  0
  2 12  1  0
  3 12  2  0
  4  7  1  0
  4  9  1  0
  5  7  2  0
  5 10  1  0
  6  8  1  0
  6 15  1  0
  8 13  2  0
  9 10  2  0
  9 11  1  0
 12 13  1  0
 13 14  1  0
 14 15  2  0
M  END
$$$$
