CypD-x0647-pandda-model
     RDKit          3D

 13 14  0  0  0  0  0  0  0  0999 V2000
   -8.9636    1.7495   21.1467 C   0  0  0  0  0  0  0  0  0  0  0  0
  -10.0657    1.9240   18.9606 N   0  0  0  0  0  0  0  0  0  0  0  0
   -9.6225    0.9825   20.0096 C   0  0  0  0  0  0  0  0  0  0  0  0
  -15.2851    3.2407   18.8646 N   0  0  0  0  0  0  0  0  0  0  0  0
  -11.0399    1.3115   18.0473 C   0  0  0  0  0  0  0  0  0  0  0  0
  -12.0468    2.3651   17.6771 C   0  0  0  0  0  0  0  0  0  0  0  0
  -11.8321    3.2281   16.6269 C   0  0  0  0  0  0  0  0  0  0  0  0
  -12.7874    4.1925   16.2934 C   0  0  0  0  0  0  0  0  0  0  0  0
  -13.9636    4.2876   16.9976 C   0  0  0  0  0  0  0  0  0  0  0  0
  -14.1950    3.3971   18.0475 C   0  0  0  0  0  0  0  0  0  0  0  0
  -15.0131    2.2361   19.7465 C   0  0  0  0  0  0  0  0  0  0  0  0
  -13.7798    1.7368   19.4977 C   0  0  0  0  0  0  0  0  0  0  0  0
  -13.2390    2.4513   18.4053 C   0  0  0  0  0  0  0  0  0  0  0  0
  1  3  1  0
  2  3  1  0
  2  5  1  0
  4 10  1  0
  4 11  1  0
  5  6  1  0
  6  7  1  0
  6 13  2  0
  7  8  2  0
  8  9  1  0
  9 10  2  0
 10 13  1  0
 11 12  2  0
 12 13  1  0
M  CHG  1   2   1
M  END
$$$$
