CypD-x0884-pandda-model
     RDKit          3D

 15 16  0  0  0  0  0  0  0  0999 V2000
  -14.0254    4.1881   17.6044 C   0  0  0  0  0  0  0  0  0  0  0  0
  -11.9177    0.9858   20.3395 N   0  0  0  0  0  0  0  0  0  0  0  0
  -13.9595    0.4056   19.6318 O   0  0  0  0  0  0  0  0  0  0  0  0
  -13.0880    4.2546   16.5926 C   0  0  0  0  0  0  0  0  0  0  0  0
   -9.3540    0.2892   21.5232 N   0  0  0  0  0  0  0  0  0  0  0  0
  -12.1220    3.2656   16.5286 C   0  0  0  0  0  0  0  0  0  0  0  0
  -12.1061    2.2527   17.4724 C   0  0  0  0  0  0  0  0  0  0  0  0
  -13.0462    2.1929   18.5053 C   0  0  0  0  0  0  0  0  0  0  0  0
  -14.0260    3.1812   18.5475 C   0  0  0  0  0  0  0  0  0  0  0  0
  -13.0041    1.1453   19.5059 C   0  0  0  0  0  0  0  0  0  0  0  0
  -10.8456    2.0052   20.5262 C   0  0  0  0  0  0  0  0  0  0  0  0
   -9.4586    1.3455   20.5123 C   0  0  0  0  0  0  0  0  0  0  0  0
  -10.3744   -0.7483   21.2999 C   0  0  0  0  0  0  0  0  0  0  0  0
  -11.8066   -0.1764   21.2763 C   0  0  0  0  0  0  0  0  0  0  0  0
  -14.9409    5.1150   17.6739 F   0  0  0  0  0  0  0  0  0  0  0  0
  1  4  2  0
  1  9  1  0
  1 15  1  0
  2 10  1  0
  2 11  1  0
  2 14  1  0
  3 10  2  0
  4  6  1  0
  5 12  1  0
  5 13  1  0
  6  7  2  0
  7  8  1  0
  8  9  2  0
  8 10  1  0
 11 12  1  0
 13 14  1  0
M  END
$$$$
