CypD-x0782-pandda-model
     RDKit          3D

 15 15  0  0  1  0  0  0  0  0999 V2000
  -12.6690   -0.8292   19.7907 C   0  0  0  0  0  0  0  0  0  0  0  0
  -11.6142    1.1740   20.6712 N   0  0  0  0  0  0  0  0  0  0  0  0
  -10.1028    2.4438   19.6003 O   0  0  0  0  0  0  0  0  0  0  0  0
  -12.3270    0.6315   19.4868 C   0  0  2  0  0  0  0  0  0  0  0  0
  -13.6881    2.1024   17.9068 N   0  0  0  0  0  0  0  0  0  0  0  0
  -14.5023    1.4984   19.9214 O   0  0  0  0  0  0  0  0  0  0  0  0
  -10.5614    2.0180   20.6337 C   0  0  0  0  0  0  0  0  0  0  0  0
   -9.9442    2.4257   21.9451 C   0  0  0  0  0  0  0  0  0  0  0  0
  -13.5880    1.4548   19.1178 C   0  0  0  0  0  0  0  0  0  0  0  0
  -15.0173    2.5749   17.4374 C   0  0  0  0  0  0  0  0  0  0  0  0
  -15.2509    4.0008   17.9341 C   0  0  0  0  0  0  0  0  0  0  0  0
  -14.5346    5.0769   17.1146 C   0  0  0  0  0  0  0  0  0  0  0  0
  -13.0169    4.8955   17.0163 C   0  0  0  0  0  0  0  0  0  0  0  0
  -12.6260    3.6600   16.1926 C   0  0  0  0  0  0  0  0  0  0  0  0
  -12.5279    2.3589   16.9999 C   0  0  0  0  0  0  0  0  0  0  0  0
  4  1  1  1
  2  4  1  0
  2  7  1  0
  3  7  2  0
  4  9  1  0
  5  9  1  0
  5 10  1  0
  5 15  1  0
  6  9  2  0
  7  8  1  0
 10 11  1  0
 11 12  1  0
 12 13  1  0
 13 14  1  0
 14 15  1  0
M  END
$$$$
