CypD-x0880-pandda-model
     RDKit          3D

 15 16  0  0  0  0  0  0  0  0999 V2000
  -13.5489   -0.8817   18.9364 C   0  0  0  0  0  0  0  0  0  0  0  0
  -12.9901    1.9689   19.5864 N   0  0  0  0  0  0  0  0  0  0  0  0
  -17.0276    3.3992   19.6477 O   0  0  0  0  0  0  0  0  0  0  0  0
  -12.3146   -0.4104   19.6985 C   0  0  0  0  0  0  0  0  0  0  0  0
  -13.6233    3.8945   18.8857 N   0  0  0  0  0  0  0  0  0  0  0  0
  -15.9510    5.2787   19.8929 O   0  0  0  0  0  0  0  0  0  0  0  0
  -11.4050   -1.3619   20.1331 C   0  0  0  0  0  0  0  0  0  0  0  0
  -12.6251    3.0901   18.9344 N   0  0  0  0  0  0  0  0  0  0  0  0
  -10.2618   -0.9903   20.8183 C   0  0  0  0  0  0  0  0  0  0  0  0
  -10.0154    0.3460   21.0731 C   0  0  0  0  0  0  0  0  0  0  0  0
  -10.9186    1.3008   20.6491 C   0  0  0  0  0  0  0  0  0  0  0  0
  -12.0784    0.9421   19.9661 C   0  0  0  0  0  0  0  0  0  0  0  0
  -14.2702    2.0995   19.9382 C   0  0  0  0  0  0  0  0  0  0  0  0
  -14.6754    3.3160   19.5048 C   0  0  0  0  0  0  0  0  0  0  0  0
  -15.9540    3.9707   19.6607 C   0  0  0  0  0  0  0  0  0  0  0  0
  1  4  1  0
  2  8  1  0
  2 12  1  0
  2 13  1  0
  3 15  2  0
  4  7  2  0
  4 12  1  0
  5  8  2  0
  5 14  1  0
  6 15  1  0
  7  9  1  0
  9 10  2  0
 10 11  1  0
 11 12  2  0
 13 14  2  0
 14 15  1  0
M  END
$$$$
