CypD-x0238-pandda-model
     RDKit          3D

 14 15  0  0  1  0  0  0  0  0999 V2000
  -10.0280    0.0050   23.9180 C   0  0  0  0  0  0  0  0  0  0  0  0
   -7.8730    0.7420   23.1170 N   0  0  0  0  0  0  0  0  0  0  0  0
   -9.0900    0.0320   22.7170 C   0  0  2  0  0  0  0  0  0  0  0  0
  -10.9930    1.5410   19.9660 N   0  0  0  0  0  0  0  0  0  0  0  0
   -9.7110    0.7220   21.4950 C   0  0  0  0  0  0  0  0  0  0  0  0
   -9.6990    1.7920   19.6640 N   0  0  0  0  0  0  0  0  0  0  0  0
  -10.9970    0.8610   21.1290 C   0  0  0  0  0  0  0  0  0  0  0  0
   -8.9340    1.3010   20.5720 N   0  0  0  0  0  0  0  0  0  0  0  0
  -12.1020    1.9780   19.1740 C   0  0  0  0  0  0  0  0  0  0  0  0
  -11.9090    2.4530   17.8760 C   0  0  0  0  0  0  0  0  0  0  0  0
  -12.9700    2.8900   17.1050 C   0  0  0  0  0  0  0  0  0  0  0  0
  -14.2560    2.8520   17.6120 C   0  0  0  0  0  0  0  0  0  0  0  0
  -14.4710    2.3800   18.8940 C   0  0  0  0  0  0  0  0  0  0  0  0
  -13.4070    1.9520   19.6680 C   0  0  0  0  0  0  0  0  0  0  0  0
  3  1  1  1
  2  3  1  0
  3  5  1  0
  4  6  1  0
  4  7  1  0
  4  9  1  0
  5  7  2  0
  5  8  1  0
  6  8  2  0
  9 10  2  0
  9 14  1  0
 10 11  1  0
 11 12  2  0
 12 13  1  0
 13 14  2  0
M  CHG  1   2   1
M  END
$$$$
