CypD-x0814-pandda-model
     RDKit          3D

 13 13  0  0  0  0  0  0  0  0999 V2000
  -16.6397    1.8882   18.1096 C   0  0  0  0  0  0  0  0  0  0  0  0
  -15.5744    1.0958   17.4884 N   0  0  0  0  0  0  0  0  0  0  0  0
  -14.9437   -1.1556   16.6097 O   0  0  0  0  0  0  0  0  0  0  0  0
  -16.1459   -0.3913   16.8732 S   0  0  0  0  0  0  0  0  0  0  0  0
  -14.8652    1.8892   16.4781 C   0  0  0  0  0  0  0  0  0  0  0  0
  -17.2622    0.6480   13.1839 N   0  0  0  0  0  0  0  0  0  0  0  0
  -17.0853   -0.9103   17.8445 O   0  0  0  0  0  0  0  0  0  0  0  0
  -17.0129    0.0890   15.3448 C   0  0  0  0  0  0  0  0  0  0  0  0
  -18.4149    0.8435   13.8409 N   0  0  0  0  0  0  0  0  0  0  0  0
  -16.4393    0.1899   14.0724 C   0  0  0  0  0  0  0  0  0  0  0  0
  -15.0286   -0.1636   13.6444 C   0  0  0  0  0  0  0  0  0  0  0  0
  -18.2977    0.5047   15.1414 C   0  0  0  0  0  0  0  0  0  0  0  0
  -19.4717    0.6097   16.1032 C   0  0  0  0  0  0  0  0  0  0  0  0
  1  2  1  0
  2  4  1  0
  2  5  1  0
  3  4  2  0
  4  7  2  0
  4  8  1  0
  6  9  1  0
  6 10  2  0
  8 10  1  0
  8 12  2  0
  9 12  1  0
 10 11  1  0
 12 13  1  0
M  END
$$$$
