CypD-x0419-pandda-model
     RDKit          3D

 15 16  0  0  0  0  0  0  0  0999 V2000
  -17.5540   -1.9120    9.8630 C   0  0  0  0  0  0  0  0  0  0  0  0
  -23.3700   -0.4030    9.7400 N   0  0  0  0  0  0  0  0  0  0  0  0
  -24.2060   -1.2050   11.7240 O   0  0  0  0  0  0  0  0  0  0  0  0
  -19.0360   -1.6940   10.0420 C   0  0  0  0  0  0  0  0  0  0  0  0
  -23.4420   -0.2830    8.3600 N   0  0  0  0  0  0  0  0  0  0  0  0
  -21.0530   -2.0600   10.3020 O   0  0  0  0  0  0  0  0  0  0  0  0
  -19.6540   -0.4510   10.1100 C   0  0  0  0  0  0  0  0  0  0  0  0
  -19.8950   -2.6410   10.1550 N   0  0  0  0  0  0  0  0  0  0  0  0
  -20.9500   -0.7560   10.2760 C   0  0  0  0  0  0  0  0  0  0  0  0
  -22.1690    0.1380   10.4370 C   0  0  0  0  0  0  0  0  0  0  0  0
  -24.5220   -0.7320    7.7910 C   0  0  0  0  0  0  0  0  0  0  0  0
  -24.6120   -0.7340    6.2790 C   0  0  0  0  0  0  0  0  0  0  0  0
  -25.6230   -1.2520    8.5120 C   0  0  0  0  0  0  0  0  0  0  0  0
  -25.5460   -1.3840    9.8600 C   0  0  0  0  0  0  0  0  0  0  0  0
  -24.3600   -0.9990   10.5220 C   0  0  0  0  0  0  0  0  0  0  0  0
  1  4  1  0
  2  5  1  0
  2 10  1  0
  2 15  1  0
  3 15  2  0
  4  7  1  0
  4  8  2  0
  5 11  2  0
  6  8  1  0
  6  9  1  0
  7  9  2  0
  9 10  1  0
 11 12  1  0
 11 13  1  0
 13 14  2  0
 14 15  1  0
M  END
$$$$
