CypD-x0584-pandda-model
     RDKit          3D

 12 12  0  0  0  0  0  0  0  0999 V2000
  -22.7020    0.8830   18.5640 C   0  0  0  0  0  0  0  0  0  0  0  0
  -20.5490    0.6890   19.8640 N   0  0  0  0  0  0  0  0  0  0  0  0
  -19.3320    2.7600   23.3560 O   0  0  0  0  0  0  0  0  0  0  0  0
  -21.4940    1.4540   19.2710 C   0  0  0  0  0  0  0  0  0  0  0  0
  -20.0710    2.7440   20.0820 N   0  0  0  0  0  0  0  0  0  0  0  0
  -17.8450    4.2490   22.8410 O   0  0  0  0  0  0  0  0  0  0  0  0
  -19.6640    1.5200   20.3650 C   0  0  0  0  0  0  0  0  0  0  0  0
  -21.2300    2.7030   19.3760 N   0  0  0  0  0  0  0  0  0  0  0  0
  -18.4170    1.0640   21.0960 C   0  0  0  0  0  0  0  0  0  0  0  0
  -19.4930    4.0590   20.4660 C   0  0  0  0  0  0  0  0  0  0  0  0
  -19.9340    4.4630   21.8600 C   0  0  0  0  0  0  0  0  0  0  0  0
  -18.9950    3.7980   22.7950 C   0  0  0  0  0  0  0  0  0  0  0  0
  1  4  1  0
  2  4  1  0
  2  7  2  0
  3 12  1  0
  4  8  2  0
  5  7  1  0
  5  8  1  0
  5 10  1  0
  6 12  2  0
  7  9  1  0
 10 11  1  0
 11 12  1  0
M  CHG  2   2   1   3  -1
M  END
$$$$
