CypD-x0271-pandda-model
     RDKit          3D

 15 16  0  0  1  0  0  0  0  0999 V2000
  -15.5550    2.9890   19.0800 C   0  0  0  0  0  0  0  0  0  0  0  0
  -14.0700    1.3580   17.9500 N   0  0  0  0  0  0  0  0  0  0  0  0
  -13.4260   -0.6410   18.7240 O   0  0  0  0  0  0  0  0  0  0  0  0
  -14.2470    2.7920   18.3150 C   0  0  1  0  0  0  0  0  0  0  0  0
  -10.2360    2.3760   19.3840 N   0  0  0  0  0  0  0  0  0  0  0  0
  -11.2840    2.0500   18.6920 O   0  0  0  0  0  0  0  0  0  0  0  0
  -14.2070    3.6880   17.0720 C   0  0  0  0  0  0  0  0  0  0  0  0
  -13.6100    5.0560   17.1580 C   0  0  0  0  0  0  0  0  0  0  0  0
  -12.9460    3.9980   16.3270 C   0  0  0  0  0  0  0  0  0  0  0  0
  -15.0550    0.7800   16.9780 C   0  0  0  0  0  0  0  0  0  0  0  0
  -13.1700    0.5460   18.6140 C   0  0  0  0  0  0  0  0  0  0  0  0
  -11.9560    1.0480   19.2130 C   0  0  0  0  0  0  0  0  0  0  0  0
  -11.2690    0.6750   20.3170 C   0  0  0  0  0  0  0  0  0  0  0  0
  -10.2010    1.5590   20.3750 C   0  0  0  0  0  0  0  0  0  0  0  0
   -9.1380    1.5890   21.4520 C   0  0  0  0  0  0  0  0  0  0  0  0
  4  1  1  6
  2  4  1  0
  2 10  1  0
  2 11  1  0
  3 11  2  0
  4  7  1  0
  5  6  1  0
  5 14  2  0
  6 12  1  0
  7  8  1  0
  7  9  1  0
  8  9  1  0
 11 12  1  0
 12 13  2  0
 13 14  1  0
 14 15  1  0
M  END
$$$$
