CypD-x0945-pandda-model
     RDKit          3D

 12 13  0  0  0  0  0  0  0  0999 V2000
  -18.0900   -1.1940   10.6120 C   0  0  0  0  0  0  0  0  0  0  0  0
  -18.9640   -0.4670   11.5690 N   0  0  0  0  0  0  0  0  0  0  0  0
  -19.1840   -0.6260   12.8890 C   0  0  0  0  0  0  0  0  0  0  0  0
  -19.8920    0.3460   13.4600 N   0  0  0  0  0  0  0  0  0  0  0  0
  -20.0210    0.5180   14.8120 C   0  0  0  0  0  0  0  0  0  0  0  0
  -19.4490   -0.3750   15.6510 C   0  0  0  0  0  0  0  0  0  0  0  0
  -18.7700   -1.5140   15.1390 C   0  0  0  0  0  0  0  0  0  0  0  0
  -18.2360   -2.4820   15.9970 C   0  0  0  0  0  0  0  0  0  0  0  0
  -17.7200   -3.6530   15.5060 C   0  0  0  0  0  0  0  0  0  0  0  0
  -17.7330   -3.8860   14.1360 C   0  0  0  0  0  0  0  0  0  0  0  0
  -18.2130   -2.9280   13.2780 C   0  0  0  0  0  0  0  0  0  0  0  0
  -18.7000   -1.6890   13.7370 C   0  0  0  0  0  0  0  0  0  0  0  0
  1  2  1  0
  2  3  1  0
  3  4  2  0
  3 12  1  0
  4  5  1  0
  5  6  2  0
  6  7  1  0
  7  8  1  0
  7 12  2  0
  8  9  2  0
  9 10  1  0
 10 11  2  0
 11 12  1  0
M  CHG  1   4   1
M  END
$$$$
