CypD-x0677-pandda-model
     RDKit          3D

 12 12  0  0  0  0  0  0  0  0999 V2000
  -19.0609    3.6541   17.3747 C   0  0  0  0  0  0  0  0  0  0  0  0
  -17.0893    2.1979   17.2051 N   0  0  0  0  0  0  0  0  0  0  0  0
  -22.3104    2.0358   17.2961 O   0  0  0  0  0  0  0  0  0  0  0  0
  -18.3618    2.3582   17.0207 C   0  0  0  0  0  0  0  0  0  0  0  0
  -16.8358    0.9421   16.7840 N   0  0  0  0  0  0  0  0  0  0  0  0
  -15.4861    0.3626   16.8417 C   0  0  0  0  0  0  0  0  0  0  0  0
  -20.9310    0.9303   18.6169 N   0  0  0  0  0  0  0  0  0  0  0  0
  -17.9610    0.3287   16.3526 C   0  0  0  0  0  0  0  0  0  0  0  0
  -17.9790   -1.0976   15.8225 C   0  0  0  0  0  0  0  0  0  0  0  0
  -18.9683    1.2193   16.4936 C   0  0  0  0  0  0  0  0  0  0  0  0
  -20.4558    1.0581   16.1846 C   0  0  0  0  0  0  0  0  0  0  0  0
  -21.3166    1.3626   17.4026 C   0  0  0  0  0  0  0  0  0  0  0  0
  1  4  1  0
  2  4  2  0
  2  5  1  0
  3 12  2  0
  4 10  1  0
  5  6  1  0
  5  8  1  0
  7 12  1  0
  8  9  1  0
  8 10  2  0
 10 11  1  0
 11 12  1  0
M  END
$$$$
