CypD-x0884-pandda-model
     RDKit          3D

 15 16  0  0  0  0  0  0  0  0999 V2000
  -14.3590    4.2520   17.1080 C   0  0  0  0  0  0  0  0  0  0  0  0
  -15.3780    0.0770   16.1870 N   0  0  0  0  0  0  0  0  0  0  0  0
  -14.0530   -0.2530   17.9540 O   0  0  0  0  0  0  0  0  0  0  0  0
  -13.0100    4.5200   16.9960 C   0  0  0  0  0  0  0  0  0  0  0  0
  -16.0860   -1.6610   13.9960 N   0  0  0  0  0  0  0  0  0  0  0  0
  -12.1270    3.4540   16.9540 C   0  0  0  0  0  0  0  0  0  0  0  0
  -12.6070    2.1570   17.0060 C   0  0  0  0  0  0  0  0  0  0  0  0
  -13.9730    1.8860   17.0910 C   0  0  0  0  0  0  0  0  0  0  0  0
  -14.8520    2.9660   17.1530 C   0  0  0  0  0  0  0  0  0  0  0  0
  -14.4650    0.5250   17.1130 C   0  0  0  0  0  0  0  0  0  0  0  0
  -16.2360   -1.1250   16.4290 C   0  0  0  0  0  0  0  0  0  0  0  0
  -15.9410   -2.2130   15.3810 C   0  0  0  0  0  0  0  0  0  0  0  0
  -15.2240   -0.4630   13.7500 C   0  0  0  0  0  0  0  0  0  0  0  0
  -15.4780    0.6350   14.8000 C   0  0  0  0  0  0  0  0  0  0  0  0
  -15.1940    5.2530   17.1780 F   0  0  0  0  0  0  0  0  0  0  0  0
  1  4  2  0
  1  9  1  0
  1 15  1  0
  2 10  1  0
  2 11  1  0
  2 14  1  0
  3 10  2  0
  4  6  1  0
  5 12  1  0
  5 13  1  0
  6  7  2  0
  7  8  1  0
  8  9  2  0
  8 10  1  0
 11 12  1  0
 13 14  1  0
M  CHG  1   5   1
M  END
$$$$
