CypD-x0613-pandda-model
     RDKit          3D

 15 16  0  0  1  0  0  0  0  0999 V2000
  -14.3635    4.7310   17.0249 C   0  0  0  0  0  0  0  0  0  0  0  0
  -13.4711    3.8909   17.8595 N   0  0  0  0  0  0  0  0  0  0  0  0
  -13.0541    0.9995   19.3363 O   0  0  0  0  0  0  0  0  0  0  0  0
  -12.1989    3.3956   17.3085 C   0  0  0  0  0  0  0  0  0  0  0  0
  -14.8209    3.4810   19.6493 O   0  0  0  0  0  0  0  0  0  0  0  0
  -11.5360    2.6804   18.4907 C   0  0  0  0  0  0  0  0  0  0  0  0
  -12.6719    2.3606   19.4817 C   0  0  1  0  0  0  0  0  0  0  0  0
  -12.2811   -0.0135   19.8077 C   0  0  0  0  0  0  0  0  0  0  0  0
  -12.7185   -1.3064   19.5507 C   0  0  0  0  0  0  0  0  0  0  0  0
  -11.9910   -2.4060   19.9807 C   0  0  0  0  0  0  0  0  0  0  0  0
  -10.8098   -2.2212   20.6803 C   0  0  0  0  0  0  0  0  0  0  0  0
  -10.3876   -0.9282   20.9297 C   0  0  0  0  0  0  0  0  0  0  0  0
  -11.0965    0.1803   20.5141 C   0  0  0  0  0  0  0  0  0  0  0  0
  -13.7936    3.2876   19.0314 C   0  0  0  0  0  0  0  0  0  0  0  0
   -9.2686   -0.7474   21.5801 F   0  0  0  0  0  0  0  0  0  0  0  0
  1  2  1  0
  2  4  1  0
  2 14  1  0
  7  3  1  6
  3  8  1  0
  4  6  1  0
  5 14  2  0
  6  7  1  0
  7 14  1  0
  8  9  2  0
  8 13  1  0
  9 10  1  0
 10 11  2  0
 11 12  1  0
 12 13  2  0
 12 15  1  0
M  END
$$$$
