CypD-x0291-pandda-model
     RDKit          3D

 15 16  0  0  0  0  0  0  0  0999 V2000
  -14.6960    1.0320   16.2600 C   0  0  0  0  0  0  0  0  0  0  0  0
  -16.6440    0.4000   18.4280 N   0  0  0  0  0  0  0  0  0  0  0  0
  -16.9640    3.7640   21.4750 O   0  0  0  0  0  0  0  0  0  0  0  0
  -15.6580   -0.1460   16.2150 C   0  0  0  0  0  0  0  0  0  0  0  0
  -16.8040    0.9420   20.5000 N   0  0  0  0  0  0  0  0  0  0  0  0
  -17.4480    4.3380   19.5070 O   0  0  0  0  0  0  0  0  0  0  0  0
  -15.6340   -0.9670   15.0980 C   0  0  0  0  0  0  0  0  0  0  0  0
  -16.6130   -0.0460   19.6980 N   0  0  0  0  0  0  0  0  0  0  0  0
  -16.4570   -2.0750   15.0190 C   0  0  0  0  0  0  0  0  0  0  0  0
  -17.3120   -2.3730   16.0630 C   0  0  0  0  0  0  0  0  0  0  0  0
  -17.3500   -1.5550   17.1760 C   0  0  0  0  0  0  0  0  0  0  0  0
  -16.5380   -0.4270   17.2690 C   0  0  0  0  0  0  0  0  0  0  0  0
  -16.8750    1.7120   18.4680 C   0  0  0  0  0  0  0  0  0  0  0  0
  -16.9670    2.0690   19.7690 C   0  0  0  0  0  0  0  0  0  0  0  0
  -17.1660    3.4170   20.2930 C   0  0  0  0  0  0  0  0  0  0  0  0
  1  4  1  0
  2  8  1  0
  2 12  1  0
  2 13  1  0
  3 15  1  0
  4  7  2  0
  4 12  1  0
  5  8  2  0
  5 14  1  0
  6 15  2  0
  7  9  1  0
  9 10  2  0
 10 11  1  0
 11 12  2  0
 13 14  2  0
 14 15  1  0
M  CHG  1   3  -1
M  END
$$$$
