CypD-x0309-pandda-model
     RDKit          3D

 15 16  0  0  0  0  0  0  0  0999 V2000
  -24.9722   -0.7124   10.1841 C   0  0  0  0  0  0  0  0  0  0  0  0
  -23.1012   -2.6734    8.1543 N   0  0  0  0  0  0  0  0  0  0  0  0
  -22.5635    0.2056   10.7224 O   0  0  0  0  0  0  0  0  0  0  0  0
  -23.3275   -0.3205    9.6138 S   0  0  0  0  0  0  0  0  0  0  0  0
  -22.6836   -1.9700    9.1723 C   0  0  0  0  0  0  0  0  0  0  0  0
  -21.7151   -2.6237    9.8811 N   0  0  0  0  0  0  0  0  0  0  0  0
  -23.4522    0.4942    8.4200 O   0  0  0  0  0  0  0  0  0  0  0  0
  -17.8273    0.0593   11.4056 S   0  0  0  0  0  0  0  0  0  0  0  0
  -22.3652   -3.7936    8.1768 C   0  0  0  0  0  0  0  0  0  0  0  0
  -18.7115   -2.1963   10.4784 N   0  0  0  0  0  0  0  0  0  0  0  0
  -21.5171   -3.7805    9.2210 C   0  0  0  0  0  0  0  0  0  0  0  0
  -21.0554   -2.3080   11.1753 C   0  0  0  0  0  0  0  0  0  0  0  0
  -19.7116   -1.6283   10.9921 C   0  0  0  0  0  0  0  0  0  0  0  0
  -19.5906   -0.2131   11.5163 C   0  0  0  0  0  0  0  0  0  0  0  0
  -17.4673   -1.4260   10.4560 C   0  0  0  0  0  0  0  0  0  0  0  0
  1  4  1  0
  2  5  2  0
  2  9  1  0
  3  4  2  0
  4  5  1  0
  4  7  2  0
  5  6  1  0
  6 11  1  0
  6 12  1  0
  8 14  1  0
  8 15  1  0
  9 11  2  0
 10 13  2  0
 10 15  1  0
 12 13  1  0
 13 14  1  0
M  END
$$$$
