CypD-x0645-pandda-model
     RDKit          3D

 16 17  0  0  0  0  0  0  0  0999 V2000
  -19.2314   -2.3754   18.3667 C   0  0  0  0  0  0  0  0  0  0  0  0
  -19.9780   -2.1031   17.1139 N   0  0  0  0  0  0  0  0  0  0  0  0
  -21.0716   -3.0706   16.8196 C   0  0  0  0  0  0  0  0  0  0  0  0
  -18.0171    0.9949   11.9153 N   0  0  0  0  0  0  0  0  0  0  0  0
  -19.2537   -1.5596   16.0546 C   0  0  0  0  0  0  0  0  0  0  0  0
  -19.0207    0.1036   11.3819 N   0  0  0  0  0  0  0  0  0  0  0  0
  -18.8751   -2.3222   14.9553 C   0  0  0  0  0  0  0  0  0  0  0  0
  -20.0667   -1.2911   10.0740 N   0  0  0  0  0  0  0  0  0  0  0  0
  -18.1662   -1.7589   13.9110 C   0  0  0  0  0  0  0  0  0  0  0  0
  -20.8214   -1.1032   11.1551 N   0  0  0  0  0  0  0  0  0  0  0  0
  -17.8182   -0.4154   13.9406 C   0  0  0  0  0  0  0  0  0  0  0  0
  -17.0819    0.2096   12.7656 C   0  0  0  0  0  0  0  0  0  0  0  0
  -19.0051   -0.5597   10.2325 C   0  0  0  0  0  0  0  0  0  0  0  0
  -20.1826   -0.2693   11.9148 C   0  0  0  0  0  0  0  0  0  0  0  0
  -18.1748    0.3467   15.0428 C   0  0  0  0  0  0  0  0  0  0  0  0
  -18.8857   -0.2207   16.0843 C   0  0  0  0  0  0  0  0  0  0  0  0
  1  2  1  0
  2  3  1  0
  2  5  1  0
  4  6  1  0
  4 12  1  0
  5  7  2  0
  5 16  1  0
  6 13  1  0
  6 14  1  0
  7  9  1  0
  8 10  1  0
  8 13  2  0
  9 11  2  0
 10 14  2  0
 11 12  1  0
 11 15  1  0
 15 16  2  0
M  END
$$$$
