CypD-x0687-pandda-model
     RDKit          3D

 15 16  0  0  0  0  0  0  0  0999 V2000
  -12.2418    2.1461   20.9721 C   0  0  0  0  0  0  0  0  0  0  0  0
  -12.1406    2.6744   19.5969 N   0  0  0  0  0  0  0  0  0  0  0  0
  -14.9629    3.6029   20.0569 O   0  0  0  0  0  0  0  0  0  0  0  0
  -11.2150    3.3578   17.8449 C   0  0  0  0  0  0  0  0  0  0  0  0
  -10.9301    2.8654   19.0186 N   0  0  0  0  0  0  0  0  0  0  0  0
  -12.5702    3.4906   17.6588 C   0  0  0  0  0  0  0  0  0  0  0  0
  -15.4010    2.1107   18.4273 N   0  0  0  0  0  0  0  0  0  0  0  0
  -13.1686    3.0377   18.7833 C   0  0  0  0  0  0  0  0  0  0  0  0
  -14.5510    2.9462   19.1129 C   0  0  0  0  0  0  0  0  0  0  0  0
  -16.8541    2.0116   18.7473 C   0  0  0  0  0  0  0  0  0  0  0  0
  -17.2103    0.5540   19.0532 C   0  0  0  0  0  0  0  0  0  0  0  0
  -16.8188   -0.3717   17.8921 C   0  0  0  0  0  0  0  0  0  0  0  0
  -15.3402   -0.1863   17.5214 C   0  0  0  0  0  0  0  0  0  0  0  0
  -15.0086    1.2851   17.2496 C   0  0  0  0  0  0  0  0  0  0  0  0
  -13.3312    4.1428   16.2237 Cl  0  0  0  0  0  0  0  0  0  0  0  0
  1  2  1  0
  2  5  1  0
  2  8  1  0
  3  9  2  0
  4  5  2  0
  4  6  1  0
  6  8  2  0
  6 15  1  0
  7  9  1  0
  7 10  1  0
  7 14  1  0
  8  9  1  0
 10 11  1  0
 11 12  1  0
 12 13  1  0
 13 14  1  0
M  END
$$$$
