CypD-x0862-pandda-model
     RDKit          3D

 15 16  0  0  0  0  0  0  0  0999 V2000
    2.7307   -5.7794   -6.5179 C   0  0  0  0  0  0  0  0  0  0  0  0
    1.7289   -5.1774   -5.5933 N   0  0  0  0  0  0  0  0  0  0  0  0
    0.0172   -5.3953   -7.0361 O   0  0  0  0  0  0  0  0  0  0  0  0
    2.2723   -4.8454   -4.2457 C   0  0  0  0  0  0  0  0  0  0  0  0
   -3.2951   -2.5127   -2.4980 N   0  0  0  0  0  0  0  0  0  0  0  0
    0.4099   -4.9869   -5.9551 C   0  0  0  0  0  0  0  0  0  0  0  0
   -0.5411   -4.3292   -5.0892 C   0  0  0  0  0  0  0  0  0  0  0  0
   -1.6526   -5.0166   -4.6019 C   0  0  0  0  0  0  0  0  0  0  0  0
   -2.5618   -4.4038   -3.7669 C   0  0  0  0  0  0  0  0  0  0  0  0
   -2.3912   -3.0825   -3.3772 C   0  0  0  0  0  0  0  0  0  0  0  0
   -2.9324   -1.2580   -1.8041 C   0  0  0  0  0  0  0  0  0  0  0  0
   -2.3041   -0.3002   -2.8171 C   0  0  0  0  0  0  0  0  0  0  0  0
   -1.0611   -0.9219   -3.4661 C   0  0  0  0  0  0  0  0  0  0  0  0
   -1.2968   -2.3704   -3.8736 C   0  0  0  0  0  0  0  0  0  0  0  0
   -0.3958   -2.9924   -4.7174 C   0  0  0  0  0  0  0  0  0  0  0  0
  1  2  1  0
  2  4  1  0
  2  6  1  0
  3  6  2  0
  5 10  1  0
  5 11  1  0
  6  7  1  0
  7  8  1  0
  7 15  2  0
  8  9  2  0
  9 10  1  0
 10 14  2  0
 11 12  1  0
 12 13  1  0
 13 14  1  0
 14 15  1  0
M  END
$$$$
