CypD-x0953-pandda-model
     RDKit          3D

 16 17  0  0  0  0  0  0  0  0999 V2000
    3.9793   -5.9622    4.4172 C   0  0  0  0  0  0  0  0  0  0  0  0
    4.0683   -4.3301    0.3519 N   0  0  0  0  0  0  0  0  0  0  0  0
    3.5747   -5.1117    3.1650 C   0  0  0  0  0  0  0  0  0  0  0  0
    4.7885   -4.2647    2.6945 C   0  0  0  0  0  0  0  0  0  0  0  0
    4.4606   -3.4250    1.4564 C   0  0  0  0  0  0  0  0  0  0  0  0
    2.9167   -5.2089    0.6923 C   0  0  0  0  0  0  0  0  0  0  0  0
    3.2405   -6.0233    1.9470 C   0  0  0  0  0  0  0  0  0  0  0  0
    2.3502   -4.2264    3.5463 C   0  0  0  0  0  0  0  0  0  0  0  0
    2.4717   -2.8739    3.8685 C   0  0  0  0  0  0  0  0  0  0  0  0
    1.3755   -2.1185    4.2437 C   0  0  0  0  0  0  0  0  0  0  0  0
    0.1274   -2.7013    4.3242 C   0  0  0  0  0  0  0  0  0  0  0  0
   -0.0193   -4.0375    4.0153 C   0  0  0  0  0  0  0  0  0  0  0  0
    1.0776   -4.7886    3.6331 C   0  0  0  0  0  0  0  0  0  0  0  0
    4.2824   -5.2103    5.4699 F   0  0  0  0  0  0  0  0  0  0  0  0
    3.0182   -6.7859    4.8295 F   0  0  0  0  0  0  0  0  0  0  0  0
    5.0386   -6.7286    4.1923 F   0  0  0  0  0  0  0  0  0  0  0  0
  1  3  1  0
  1 14  1  0
  1 15  1  0
  1 16  1  0
  2  5  1  0
  2  6  1  0
  3  4  1  0
  3  7  1  0
  3  8  1  0
  4  5  1  0
  6  7  1  0
  8  9  2  0
  8 13  1  0
  9 10  1  0
 10 11  2  0
 11 12  1  0
 12 13  2  0
M  CHG  1   2   1
M  END
$$$$
