CypD-x0501-pandda-model
     RDKit          3D

 14 14  0  0  0  0  0  0  0  0999 V2000
    0.6023    4.9456   -1.3179 C   0  0  0  0  0  0  0  0  0  0  0  0
   -0.7067    2.9169   -1.7656 N   0  0  0  0  0  0  0  0  0  0  0  0
   -0.3879    5.7637    1.5788 O   0  0  0  0  0  0  0  0  0  0  0  0
   -0.0973    3.6705   -0.9041 C   0  0  0  0  0  0  0  0  0  0  0  0
   -1.1718    1.8762   -1.0425 N   0  0  0  0  0  0  0  0  0  0  0  0
   -1.8798    0.7538   -1.6745 C   0  0  0  0  0  0  0  0  0  0  0  0
    0.3805    3.6406    1.5972 N   0  0  0  0  0  0  0  0  0  0  0  0
   -0.8526    1.9957    0.2670 C   0  0  0  0  0  0  0  0  0  0  0  0
   -0.7032    3.3727    5.0654 N   0  0  0  0  0  0  0  0  0  0  0  0
   -1.2396    0.9905    1.3457 C   0  0  0  0  0  0  0  0  0  0  0  0
   -0.1585    3.1451    0.3888 C   0  0  0  0  0  0  0  0  0  0  0  0
    0.1596    4.8562    2.1677 C   0  0  0  0  0  0  0  0  0  0  0  0
    0.6138    5.0757    3.5863 C   0  0  0  0  0  0  0  0  0  0  0  0
   -0.1457    4.1481    4.4481 C   0  0  0  0  0  0  0  0  0  0  0  0
  1  4  1  0
  2  4  2  0
  2  5  1  0
  3 12  2  0
  4 11  1  0
  5  6  1  0
  5  8  1  0
  7 11  1  0
  7 12  1  0
  8 10  1  0
  8 11  2  0
  9 14  3  0
 12 13  1  0
 13 14  1  0
M  END
$$$$
