CypD-x0111-pandda-model
     RDKit          3D

 15 16  0  0  0  0  0  0  0  0999 V2000
    2.3492   -1.3468   -1.0451 C   0  0  0  0  0  0  0  0  0  0  0  0
   -2.5716   -1.9555    0.5595 N   0  0  0  0  0  0  0  0  0  0  0  0
    1.0411   -1.3857   -0.5065 O   0  0  0  0  0  0  0  0  0  0  0  0
    0.8017   -0.9315    0.7548 C   0  0  0  0  0  0  0  0  0  0  0  0
   -4.2350   -4.1311    0.9588 N   0  0  0  0  0  0  0  0  0  0  0  0
    1.8262   -0.7316    1.6790 C   0  0  0  0  0  0  0  0  0  0  0  0
    1.5492   -0.2410    2.9405 C   0  0  0  0  0  0  0  0  0  0  0  0
    0.2434    0.0389    3.2992 C   0  0  0  0  0  0  0  0  0  0  0  0
   -0.7831   -0.1688    2.3924 C   0  0  0  0  0  0  0  0  0  0  0  0
   -0.5151   -0.6529    1.1209 C   0  0  0  0  0  0  0  0  0  0  0  0
   -1.6708   -0.8589    0.1463 C   0  0  0  0  0  0  0  0  0  0  0  0
   -3.6561   -2.1291   -0.4467 C   0  0  0  0  0  0  0  0  0  0  0  0
   -4.3736   -3.4967   -0.3836 C   0  0  0  0  0  0  0  0  0  0  0  0
   -2.8153   -4.2955    1.4042 C   0  0  0  0  0  0  0  0  0  0  0  0
   -1.8656   -3.2298    0.8082 C   0  0  0  0  0  0  0  0  0  0  0  0
  1  3  1  0
  2 11  1  0
  2 12  1  0
  2 15  1  0
  3  4  1  0
  4  6  2  0
  4 10  1  0
  5 13  1  0
  5 14  1  0
  6  7  1  0
  7  8  2  0
  8  9  1  0
  9 10  2  0
 10 11  1  0
 12 13  1  0
 14 15  1  0
M  CHG  1   5   1
M  END
$$$$
