CypD-x0503-pandda-model
     RDKit          3D

 14 14  0  0  0  0  0  0  0  0999 V2000
    0.9653    6.6913    4.5582 C   0  0  0  0  0  0  0  0  0  0  0  0
    0.3722    6.0221    3.3726 N   0  0  0  0  0  0  0  0  0  0  0  0
   -0.0723    2.3909    3.4742 O   0  0  0  0  0  0  0  0  0  0  0  0
    0.8525    4.5914    3.1720 C   0  0  0  0  0  0  0  0  0  0  0  0
   -2.5943    8.0469    3.1680 N   0  0  0  0  0  0  0  0  0  0  0  0
   -0.2340    3.7206    5.1410 O   0  0  0  0  0  0  0  0  0  0  0  0
    0.1210    3.5040    3.9756 C   0  0  0  0  0  0  0  0  0  0  0  0
   -1.1035    6.0936    1.7358 O   0  0  0  0  0  0  0  0  0  0  0  0
   -0.8853    6.3529    2.9095 C   0  0  0  0  0  0  0  0  0  0  0  0
   -1.9043    7.0308    3.7228 C   0  0  0  0  0  0  0  0  0  0  0  0
   -2.1480    6.6302    5.0375 C   0  0  0  0  0  0  0  0  0  0  0  0
   -3.0922    7.2696    5.8103 C   0  0  0  0  0  0  0  0  0  0  0  0
   -3.7950    8.2929    5.2216 C   0  0  0  0  0  0  0  0  0  0  0  0
   -3.5151    8.6340    3.9130 C   0  0  0  0  0  0  0  0  0  0  0  0
  1  2  1  0
  2  4  1  0
  2  9  1  0
  3  7  1  0
  4  7  1  0
  5 10  2  0
  5 14  1  0
  6  7  2  0
  8  9  2  0
  9 10  1  0
 10 11  1  0
 11 12  2  0
 12 13  1  0
 13 14  2  0
M  CHG  1   3  -1
M  END
$$$$
