CypD-x0767-pandda-model
     RDKit          3D

 16 17  0  0  0  0  0  0  0  0999 V2000
   -5.7380   -4.3048   -3.4976 C   0  0  0  0  0  0  0  0  0  0  0  0
   -2.8197   -2.6380   -1.0883 N   0  0  0  0  0  0  0  0  0  0  0  0
   -3.9466   -1.6227   -3.0892 O   0  0  0  0  0  0  0  0  0  0  0  0
   -3.4772   -2.8986   -2.6006 S   0  0  0  0  0  0  0  0  0  0  0  0
   -4.8416   -4.0223   -2.2795 C   0  0  0  0  0  0  0  0  0  0  0  0
   -2.4790   -3.6061   -3.3811 O   0  0  0  0  0  0  0  0  0  0  0  0
   -3.5848   -1.7205   -0.2571 C   0  0  0  0  0  0  0  0  0  0  0  0
   -0.2578   -0.9701    4.1472 O   0  0  0  0  0  0  0  0  0  0  0  0
   -2.7965   -1.4934    1.0196 C   0  0  0  0  0  0  0  0  0  0  0  0
   -0.2584    0.6520    2.5657 O   0  0  0  0  0  0  0  0  0  0  0  0
   -2.8407   -2.4478    2.0350 C   0  0  0  0  0  0  0  0  0  0  0  0
   -2.0413   -2.3283    3.1631 C   0  0  0  0  0  0  0  0  0  0  0  0
   -1.1938   -1.2403    3.2344 C   0  0  0  0  0  0  0  0  0  0  0  0
    0.5385    0.0714    3.5935 C   0  0  0  0  0  0  0  0  0  0  0  0
   -1.1843   -0.2730    2.2728 C   0  0  0  0  0  0  0  0  0  0  0  0
   -1.9929   -0.3656    1.1595 C   0  0  0  0  0  0  0  0  0  0  0  0
  1  5  1  0
  2  4  1  0
  2  7  1  0
  3  4  2  0
  4  5  1  0
  4  6  2  0
  7  9  1  0
  8 13  1  0
  8 14  1  0
  9 11  2  0
  9 16  1  0
 10 14  1  0
 10 15  1  0
 11 12  1  0
 12 13  2  0
 13 15  1  0
 15 16  2  0
M  END
$$$$
