CypD-x0682-pandda-model
     RDKit          3D

 15 15  0  0  0  0  0  0  0  0999 V2000
   -1.9794   -2.6244    2.0875 C   0  0  0  0  0  0  0  0  0  0  0  0
   -2.1835    0.0271    0.4396 N   0  0  0  0  0  0  0  0  0  0  0  0
   -2.9830   -1.5570   -0.9842 O   0  0  0  0  0  0  0  0  0  0  0  0
   -0.6823    4.7735   -2.9641 S   0  0  0  0  0  0  0  0  0  0  0  0
   -3.1789   -2.0594    1.3092 C   0  0  0  0  0  0  0  0  0  0  0  0
    0.4505    4.4663   -4.1333 N   0  0  0  0  0  0  0  0  0  0  0  0
   -0.1141    5.8190   -2.1392 O   0  0  0  0  0  0  0  0  0  0  0  0
   -2.7725   -1.1731    0.1413 C   0  0  0  0  0  0  0  0  0  0  0  0
   -1.8767    5.1106   -3.6932 O   0  0  0  0  0  0  0  0  0  0  0  0
   -1.7082    1.0640   -0.3816 C   0  0  0  0  0  0  0  0  0  0  0  0
   -1.4781    0.9362   -1.7476 C   0  0  0  0  0  0  0  0  0  0  0  0
   -1.0912    2.0247   -2.5103 C   0  0  0  0  0  0  0  0  0  0  0  0
   -0.9372    3.2869   -1.9520 C   0  0  0  0  0  0  0  0  0  0  0  0
   -1.0869    3.3891   -0.5728 C   0  0  0  0  0  0  0  0  0  0  0  0
   -1.4602    2.3016    0.1955 C   0  0  0  0  0  0  0  0  0  0  0  0
  1  5  1  0
  2  8  1  0
  2 10  1  0
  3  8  2  0
  4  6  1  0
  4  7  2  0
  4  9  2  0
  4 13  1  0
  5  8  1  0
 10 11  2  0
 10 15  1  0
 11 12  1  0
 12 13  2  0
 13 14  1  0
 14 15  2  0
M  END
$$$$
