CypD-x0113-pandda-model
     RDKit          3D

 14 14  0  0  0  0  0  0  0  0999 V2000
   -2.5575   -1.6401    2.2374 C   0  0  0  0  0  0  0  0  0  0  0  0
   -2.6187   -0.0990    0.3724 N   0  0  0  0  0  0  0  0  0  0  0  0
    0.6778    4.6487   -3.0457 O   0  0  0  0  0  0  0  0  0  0  0  0
   -0.1963    3.6708   -3.6692 S   0  0  0  0  0  0  0  0  0  0  0  0
   -2.1782   -0.2421    1.7693 C   0  0  0  0  0  0  0  0  0  0  0  0
    0.2368    2.9684   -4.8605 O   0  0  0  0  0  0  0  0  0  0  0  0
   -1.9640    0.7371   -0.5346 C   0  0  0  0  0  0  0  0  0  0  0  0
   -1.4992    1.9934   -0.1625 C   0  0  0  0  0  0  0  0  0  0  0  0
   -0.9308    2.8512   -1.0927 C   0  0  0  0  0  0  0  0  0  0  0  0
   -0.8012    2.4964   -2.4331 C   0  0  0  0  0  0  0  0  0  0  0  0
   -1.2196    1.2229   -2.8036 C   0  0  0  0  0  0  0  0  0  0  0  0
   -1.7863    0.3803   -1.8709 C   0  0  0  0  0  0  0  0  0  0  0  0
   -1.6825    4.5566   -4.0681 C   0  0  0  0  0  0  0  0  0  0  0  0
   -2.1815   -0.8061   -2.2716 F   0  0  0  0  0  0  0  0  0  0  0  0
  1  5  1  0
  2  5  1  0
  2  7  1  0
  3  4  2  0
  4  6  2  0
  4 10  1  0
  4 13  1  0
  7  8  2  0
  7 12  1  0
  8  9  1  0
  9 10  2  0
 10 11  1  0
 11 12  2  0
 12 14  1  0
M  END
$$$$
