CypD-x0879-pandda-model
     RDKit          3D

 13 13  0  0  0  0  0  0  0  0999 V2000
    2.3180   -1.6805   -2.3132 C   0  0  0  0  0  0  0  0  0  0  0  0
    1.1911   -3.5289   -3.5329 N   0  0  0  0  0  0  0  0  0  0  0  0
   -0.1736   -4.3726   -5.1037 O   0  0  0  0  0  0  0  0  0  0  0  0
    1.3937   -2.8934   -2.2001 C   0  0  0  0  0  0  0  0  0  0  0  0
   -4.7571   -3.3300   -2.9780 N   0  0  0  0  0  0  0  0  0  0  0  0
    2.3565   -4.3248   -4.0239 C   0  0  0  0  0  0  0  0  0  0  0  0
   -0.0353   -3.6017   -4.1666 C   0  0  0  0  0  0  0  0  0  0  0  0
   -1.1873   -2.8107   -3.7726 C   0  0  0  0  0  0  0  0  0  0  0  0
   -1.1414   -1.4171   -3.7146 C   0  0  0  0  0  0  0  0  0  0  0  0
   -2.2628   -0.6775   -3.3813 C   0  0  0  0  0  0  0  0  0  0  0  0
   -3.4583   -1.3222   -3.1211 C   0  0  0  0  0  0  0  0  0  0  0  0
   -3.5433   -2.7025   -3.1881 C   0  0  0  0  0  0  0  0  0  0  0  0
   -2.4043   -3.4302   -3.4925 C   0  0  0  0  0  0  0  0  0  0  0  0
  1  4  1  0
  2  4  1  0
  2  6  1  0
  2  7  1  0
  3  7  2  0
  5 12  1  0
  7  8  1  0
  8  9  2  0
  8 13  1  0
  9 10  1  0
 10 11  2  0
 11 12  1  0
 12 13  2  0
M  END
$$$$
