CypD-x0568-pandda-model
     RDKit          3D

  9  9  0  0  0  0  0  0  0  0999 V2000
   -0.8012   -0.0260   -0.1774 C   0  0  0  0  0  0  0  0  0  0  0  0
   -1.4665   -3.3143   -2.1974 N   0  0  0  0  0  0  0  0  0  0  0  0
   -1.0853   -1.1265    0.6348 O   0  0  0  0  0  0  0  0  0  0  0  0
   -3.4233   -2.3009   -0.9745 S   0  0  0  0  0  0  0  0  0  0  0  0
   -0.8160   -2.3788    0.0587 C   0  0  0  0  0  0  0  0  0  0  0  0
   -2.5443   -3.4949   -3.0193 N   0  0  0  0  0  0  0  0  0  0  0  0
   -1.7453   -2.7238   -1.1000 C   0  0  0  0  0  0  0  0  0  0  0  0
   -4.8684   -2.9979   -3.1035 N   0  0  0  0  0  0  0  0  0  0  0  0
   -3.6345   -3.0109   -2.5380 C   0  0  0  0  0  0  0  0  0  0  0  0
  1  3  1  0
  2  6  1  0
  2  7  2  0
  3  5  1  0
  4  7  1  0
  4  9  1  0
  5  7  1  0
  6  9  2  0
  8  9  1  0
M  END
$$$$
