CypD-x0527-pandda-model
     RDKit          3D

 12 12  0  0  0  0  0  0  0  0999 V2000
    2.4330   -1.5224   -1.8778 C   0  0  0  0  0  0  0  0  0  0  0  0
    2.1866   -1.6582   -0.4369 N   0  0  0  0  0  0  0  0  0  0  0  0
    1.4361   -1.0576    3.9771 O   0  0  0  0  0  0  0  0  0  0  0  0
    2.2164   -0.6836    0.4745 C   0  0  0  0  0  0  0  0  0  0  0  0
    2.2532    0.7393    3.0587 N   0  0  0  0  0  0  0  0  0  0  0  0
    1.9412   -1.2243    1.6950 C   0  0  0  0  0  0  0  0  0  0  0  0
    1.9071   -2.8416    0.1322 N   0  0  0  0  0  0  0  0  0  0  0  0
    1.8596   -0.5392    2.9622 C   0  0  0  0  0  0  0  0  0  0  0  0
    1.7717   -2.5900    1.4054 C   0  0  0  0  0  0  0  0  0  0  0  0
    1.4908   -3.7114    2.4195 C   0  0  0  0  0  0  0  0  0  0  0  0
    0.3188   -3.5415    3.0310 F   0  0  0  0  0  0  0  0  0  0  0  0
    2.3767   -3.7056    3.4178 F   0  0  0  0  0  0  0  0  0  0  0  0
  1  2  1  0
  2  4  1  0
  2  7  1  0
  3  8  2  0
  4  6  2  0
  5  8  1  0
  6  8  1  0
  6  9  1  0
  7  9  2  0
  9 10  1  0
 10 11  1  0
 10 12  1  0
M  END
$$$$
