CypD-x0181-pandda-model
     RDKit          3D

 16 17  0  0  0  0  0  0  0  0999 V2000
   -0.5491   -4.5253   -0.2370 C   0  0  0  0  0  0  0  0  0  0  0  0
   -3.5103   -3.9798   -1.2784 N   0  0  0  0  0  0  0  0  0  0  0  0
   -1.9053   -4.3764   -3.1790 O   0  0  0  0  0  0  0  0  0  0  0  0
   -2.2344   -3.3762   -2.1847 S   0  0  0  0  0  0  0  0  0  0  0  0
   -0.8333   -3.2499   -1.0554 C   0  0  0  0  0  0  0  0  0  0  0  0
   -2.6355   -2.0723   -2.6654 O   0  0  0  0  0  0  0  0  0  0  0  0
   -4.2697   -3.0141   -0.4897 C   0  0  0  0  0  0  0  0  0  0  0  0
   -1.3380   -0.6298    3.6362 O   0  0  0  0  0  0  0  0  0  0  0  0
   -3.4554   -2.4250    0.6524 C   0  0  0  0  0  0  0  0  0  0  0  0
   -1.6707    0.5837    1.7363 O   0  0  0  0  0  0  0  0  0  0  0  0
   -3.2715   -3.1514    1.8288 C   0  0  0  0  0  0  0  0  0  0  0  0
   -2.5587   -2.6172    2.8950 C   0  0  0  0  0  0  0  0  0  0  0  0
   -2.0421   -1.3447    2.7538 C   0  0  0  0  0  0  0  0  0  0  0  0
   -1.2002    0.6785    3.0785 C   0  0  0  0  0  0  0  0  0  0  0  0
   -2.2320   -0.6232    1.6135 C   0  0  0  0  0  0  0  0  0  0  0  0
   -2.9327   -1.1389    0.5421 C   0  0  0  0  0  0  0  0  0  0  0  0
  1  5  1  0
  2  4  1  0
  2  7  1  0
  3  4  2  0
  4  5  1  0
  4  6  2  0
  7  9  1  0
  8 13  1  0
  8 14  1  0
  9 11  2  0
  9 16  1  0
 10 14  1  0
 10 15  1  0
 11 12  1  0
 12 13  2  0
 13 15  1  0
 15 16  2  0
M  END
$$$$
