CypD-x0645-pandda-model
     RDKit          3D

 16 17  0  0  0  0  0  0  0  0999 V2000
    1.0510   -0.2991    1.7023 C   0  0  0  0  0  0  0  0  0  0  0  0
   -0.1207   -0.5850    2.5865 N   0  0  0  0  0  0  0  0  0  0  0  0
   -0.5688    0.6393    3.3042 C   0  0  0  0  0  0  0  0  0  0  0  0
   -4.8050   -4.1895   -0.0216 N   0  0  0  0  0  0  0  0  0  0  0  0
   -1.0382   -1.5783    2.2076 C   0  0  0  0  0  0  0  0  0  0  0  0
   -4.1786   -3.6334   -1.1955 N   0  0  0  0  0  0  0  0  0  0  0  0
   -2.4102   -1.4460    2.4151 C   0  0  0  0  0  0  0  0  0  0  0  0
   -3.1916   -2.3111   -2.6268 N   0  0  0  0  0  0  0  0  0  0  0  0
   -3.2920   -2.4392    2.0350 C   0  0  0  0  0  0  0  0  0  0  0  0
   -3.4537   -3.4573   -3.2497 N   0  0  0  0  0  0  0  0  0  0  0  0
   -2.8394   -3.5920    1.4137 C   0  0  0  0  0  0  0  0  0  0  0  0
   -3.8087   -4.6788    0.9638 C   0  0  0  0  0  0  0  0  0  0  0  0
   -3.6361   -2.4369   -1.4095 C   0  0  0  0  0  0  0  0  0  0  0  0
   -4.0488   -4.2207   -2.3821 C   0  0  0  0  0  0  0  0  0  0  0  0
   -1.4764   -3.7467    1.2174 C   0  0  0  0  0  0  0  0  0  0  0  0
   -0.5946   -2.7611    1.6186 C   0  0  0  0  0  0  0  0  0  0  0  0
  1  2  1  0
  2  3  1  0
  2  5  1  0
  4  6  1  0
  4 12  1  0
  5  7  2  0
  5 16  1  0
  6 13  1  0
  6 14  1  0
  7  9  1  0
  8 10  1  0
  8 13  2  0
  9 11  2  0
 10 14  2  0
 11 12  1  0
 11 15  1  0
 15 16  2  0
M  END
$$$$
