CypD-x0456-pandda-model
     RDKit          3D

 14 15  0  0  0  0  0  0  0  0999 V2000
   -0.9867   -2.0530   -4.2392 C   0  0  0  0  0  0  0  0  0  0  0  0
   -0.1946    0.8054   -1.0727 N   0  0  0  0  0  0  0  0  0  0  0  0
   -0.3685   -3.2853   -4.4414 O   0  0  0  0  0  0  0  0  0  0  0  0
   -0.6855   -1.4634   -2.8484 C   0  0  0  0  0  0  0  0  0  0  0  0
    0.5652    1.7396    0.8852 N   0  0  0  0  0  0  0  0  0  0  0  0
    0.7027   -0.7865   -2.7864 C   0  0  0  0  0  0  0  0  0  0  0  0
   -1.5537    0.6602    0.7759 N   0  0  0  0  0  0  0  0  0  0  0  0
    0.9441   -0.0778   -1.4417 C   0  0  0  0  0  0  0  0  0  0  0  0
   -1.2998    0.9270   -2.0523 C   0  0  0  0  0  0  0  0  0  0  0  0
   -1.8024   -0.4654   -2.4465 C   0  0  0  0  0  0  0  0  0  0  0  0
   -0.4034    1.0781    0.2512 C   0  0  0  0  0  0  0  0  0  0  0  0
    0.3532    1.9801    2.1556 C   0  0  0  0  0  0  0  0  0  0  0  0
   -0.8009    1.5943    2.7919 C   0  0  0  0  0  0  0  0  0  0  0  0
   -1.7300    0.9121    2.0473 C   0  0  0  0  0  0  0  0  0  0  0  0
  1  3  1  0
  1  4  1  0
  2  8  1  0
  2  9  1  0
  2 11  1  0
  4  6  1  0
  4 10  1  0
  5 11  2  0
  5 12  1  0
  6  8  1  0
  7 11  1  0
  7 14  2  0
  9 10  1  0
 12 13  2  0
 13 14  1  0
M  END
$$$$
