CypD-x0165-pandda-model
     RDKit          3D

 12 12  0  0  1  0  0  0  0  0999 V2000
   -3.2675   -1.8807    2.3621 C   0  0  0  0  0  0  0  0  0  0  0  0
   -1.0457   -0.8389    2.8698 N   0  0  0  0  0  0  0  0  0  0  0  0
   -1.5446   -2.9496    3.5049 O   0  0  0  0  0  0  0  0  0  0  0  0
   -1.8777   -1.9258    2.9529 C   0  0  0  0  0  0  0  0  0  0  0  0
   -0.3992    3.1366    1.0699 N   0  0  0  0  0  0  0  0  0  0  0  0
   -0.6949    2.0416   -0.8344 O   0  0  0  0  0  0  0  0  0  0  0  0
    0.2812   -0.8275    3.5442 C   0  0  0  0  0  0  0  0  0  0  0  0
    1.3782   -0.6775    2.4908 C   0  0  0  0  0  0  0  0  0  0  0  0
    1.1729    0.5890    1.6507 C   0  0  0  0  0  0  0  0  0  0  0  0
   -0.2499    0.6618    1.0521 C   0  0  1  0  0  0  0  0  0  0  0  0
   -1.3369    0.4184    2.1136 C   0  0  0  0  0  0  0  0  0  0  0  0
   -0.4728    1.9968    0.3540 C   0  0  0  0  0  0  0  0  0  0  0  0
  1  4  1  0
  2  4  1  0
  2  7  1  0
  2 11  1  0
  3  4  2  0
  5 12  1  0
  6 12  2  0
  7  8  1  0
  8  9  1  0
  9 10  1  0
 10 11  1  0
 10 12  1  1
M  END
$$$$
