CypD-x0645-pandda-model
     RDKit          3D

 16 17  0  0  0  0  0  0  0  0999 V2000
   -3.3570   -2.4750    0.2860 C   0  0  0  0  0  0  0  0  0  0  0  0
   -2.6760   -2.7810    1.5710 N   0  0  0  0  0  0  0  0  0  0  0  0
   -3.6070   -3.1920    2.6490 C   0  0  0  0  0  0  0  0  0  0  0  0
    1.4880    0.7930    4.7200 N   0  0  0  0  0  0  0  0  0  0  0  0
   -1.6280   -1.9550    1.9550 C   0  0  0  0  0  0  0  0  0  0  0  0
    1.6950   -0.3900    5.5320 N   0  0  0  0  0  0  0  0  0  0  0  0
   -1.8360   -0.6400    2.3550 C   0  0  0  0  0  0  0  0  0  0  0  0
    1.4900   -2.3410    6.4840 N   0  0  0  0  0  0  0  0  0  0  0  0
   -0.7780    0.1500    2.7660 C   0  0  0  0  0  0  0  0  0  0  0  0
    2.5560   -1.7420    7.0120 N   0  0  0  0  0  0  0  0  0  0  0  0
    0.5110   -0.3660    2.7870 C   0  0  0  0  0  0  0  0  0  0  0  0
    1.6800    0.4640    3.2870 C   0  0  0  0  0  0  0  0  0  0  0  0
    0.9870   -1.5160    5.6200 C   0  0  0  0  0  0  0  0  0  0  0  0
    2.6530   -0.5850    6.4330 C   0  0  0  0  0  0  0  0  0  0  0  0
    0.7250   -1.6720    2.3690 C   0  0  0  0  0  0  0  0  0  0  0  0
   -0.3360   -2.4560    1.9600 C   0  0  0  0  0  0  0  0  0  0  0  0
  1  2  1  0
  2  3  1  0
  2  5  1  0
  4  6  1  0
  4 12  1  0
  5  7  2  0
  5 16  1  0
  6 13  1  0
  6 14  1  0
  7  9  1  0
  8 10  1  0
  8 13  2  0
  9 11  2  0
 10 14  2  0
 11 12  1  0
 11 15  1  0
 15 16  2  0
M  END
$$$$
