CypD-x0196-pandda-model
     RDKit          3D

 15 15  0  0  1  0  0  0  0  0999 V2000
    0.2384    7.8917    3.1795 C   0  0  0  0  0  0  0  0  0  0  0  0
    0.3224    5.4712    3.5283 N   0  0  0  0  0  0  0  0  0  0  0  0
   -0.5123    4.0336    5.0611 O   0  0  0  0  0  0  0  0  0  0  0  0
    0.2216    6.7872    4.2412 C   0  0  2  0  0  0  0  0  0  0  0  0
   -2.2595    6.9691    4.9743 N   0  0  0  0  0  0  0  0  0  0  0  0
   -0.5493    7.2061    6.4263 O   0  0  0  0  0  0  0  0  0  0  0  0
   -0.0130    4.2406    3.9850 C   0  0  0  0  0  0  0  0  0  0  0  0
    0.2415    3.0705    3.0724 C   0  0  0  0  0  0  0  0  0  0  0  0
   -0.9111    6.9772    5.2883 C   0  0  0  0  0  0  0  0  0  0  0  0
   -3.2829    7.3151    6.0010 C   0  0  0  0  0  0  0  0  0  0  0  0
   -3.6537    8.7975    5.8794 C   0  0  0  0  0  0  0  0  0  0  0  0
   -4.6416    9.1660    4.7569 C   0  0  0  0  0  0  0  0  0  0  0  0
   -4.8415    8.1213    3.6541 C   0  0  0  0  0  0  0  0  0  0  0  0
   -3.5326    7.7285    2.9561 C   0  0  0  0  0  0  0  0  0  0  0  0
   -2.8249    6.5678    3.6602 C   0  0  0  0  0  0  0  0  0  0  0  0
  4  1  1  6
  2  4  1  0
  2  7  1  0
  3  7  2  0
  4  9  1  0
  5  9  1  0
  5 10  1  0
  5 15  1  0
  6  9  2  0
  7  8  1  0
 10 11  1  0
 11 12  1  0
 12 13  1  0
 13 14  1  0
 14 15  1  0
M  END
$$$$
