CypD-x0400-pandda-model
     RDKit          3D

 14 14  0  0  0  0  0  0  0  0999 V2000
   -4.9828   -4.9087   -1.8117 C   0  0  0  0  0  0  0  0  0  0  0  0
   -4.6002   -4.3313    0.4966 N   0  0  0  0  0  0  0  0  0  0  0  0
   -4.8632   -5.4677   -0.3987 C   0  0  0  0  0  0  0  0  0  0  0  0
    0.1155   -1.0514    2.8234 N   0  0  0  0  0  0  0  0  0  0  0  0
   -3.7140   -6.4754   -0.3515 C   0  0  0  0  0  0  0  0  0  0  0  0
   -4.2520   -4.6268    1.8987 C   0  0  0  0  0  0  0  0  0  0  0  0
   -3.1010   -3.6969    2.2151 C   0  0  0  0  0  0  0  0  0  0  0  0
   -1.7910   -4.1440    2.1432 C   0  0  0  0  0  0  0  0  0  0  0  0
   -0.7453   -3.2636    2.3529 C   0  0  0  0  0  0  0  0  0  0  0  0
   -0.9698   -1.9186    2.6330 C   0  0  0  0  0  0  0  0  0  0  0  0
   -2.2927   -1.4919    2.7231 C   0  0  0  0  0  0  0  0  0  0  0  0
   -3.3421   -2.3675    2.5234 C   0  0  0  0  0  0  0  0  0  0  0  0
   -0.0975    0.3303    3.3551 C   0  0  0  0  0  0  0  0  0  0  0  0
    1.2618   -1.1061    1.8633 C   0  0  0  0  0  0  0  0  0  0  0  0
  1  3  1  0
  2  3  1  0
  2  6  1  0
  3  5  1  0
  4 10  1  0
  4 13  1  0
  4 14  1  0
  6  7  1  0
  7  8  2  0
  7 12  1  0
  8  9  1  0
  9 10  2  0
 10 11  1  0
 11 12  2  0
M  CHG  1   2   1
M  END
$$$$
