CypD-x0775-pandda-model
     RDKit          3D

 16 17  0  0  0  0  0  0  0  0999 V2000
    0.6313   -1.6623   -2.4501 C   0  0  0  0  0  0  0  0  0  0  0  0
   -3.0210   -2.2127   -2.3182 N   0  0  0  0  0  0  0  0  0  0  0  0
   -2.6627   -4.3763   -1.7896 O   0  0  0  0  0  0  0  0  0  0  0  0
    0.6988   -0.5030   -3.1931 C   0  0  0  0  0  0  0  0  0  0  0  0
   -4.2140   -3.4403    0.7082 N   0  0  0  0  0  0  0  0  0  0  0  0
   -0.4703    0.0551   -3.6787 C   0  0  0  0  0  0  0  0  0  0  0  0
   -1.6891   -0.5290   -3.3856 C   0  0  0  0  0  0  0  0  0  0  0  0
   -1.7608   -1.6890   -2.6236 C   0  0  0  0  0  0  0  0  0  0  0  0
   -3.3454   -3.3853   -1.6944 C   0  0  0  0  0  0  0  0  0  0  0  0
   -4.5663   -3.4115   -0.7632 C   0  0  0  0  0  0  0  0  0  0  0  0
   -3.6729   -4.7363    1.1672 C   0  0  0  0  0  0  0  0  0  0  0  0
   -3.0073   -4.4084    2.4975 C   0  0  0  0  0  0  0  0  0  0  0  0
   -2.7475   -2.8974    2.4834 C   0  0  0  0  0  0  0  0  0  0  0  0
   -3.2418   -2.4083    1.1294 C   0  0  0  0  0  0  0  0  0  0  0  0
   -0.5778   -2.2605   -2.1649 C   0  0  0  0  0  0  0  0  0  0  0  0
    2.1040   -2.3873   -1.8690 Cl  0  0  0  0  0  0  0  0  0  0  0  0
  1  4  2  0
  1 15  1  0
  1 16  1  0
  2  8  1  0
  2  9  1  0
  3  9  2  0
  4  6  1  0
  5 10  1  0
  5 11  1  0
  5 14  1  0
  6  7  2  0
  7  8  1  0
  8 15  2  0
  9 10  1  0
 11 12  1  0
 12 13  1  0
 13 14  1  0
M  CHG  1   5   1
M  END
$$$$
