CypD-x0520-pandda-model
     RDKit          3D

 14 15  0  0  0  0  0  0  0  0999 V2000
   -1.5782   -2.0122   -3.6131 C   0  0  0  0  0  0  0  0  0  0  0  0
    2.4582   -2.5323   -1.9213 N   0  0  0  0  0  0  0  0  0  0  0  0
   -2.5030   -2.9432   -3.9038 O   0  0  0  0  0  0  0  0  0  0  0  0
    4.0027   -3.4658    0.6553 S   0  0  0  0  0  0  0  0  0  0  0  0
   -1.9620   -0.7095   -3.3440 C   0  0  0  0  0  0  0  0  0  0  0  0
   -1.0042    0.2361   -3.0294 C   0  0  0  0  0  0  0  0  0  0  0  0
    0.3336   -0.1180   -2.9790 C   0  0  0  0  0  0  0  0  0  0  0  0
    0.7225   -1.4256   -3.2392 C   0  0  0  0  0  0  0  0  0  0  0  0
    2.1893   -1.8091   -3.1916 C   0  0  0  0  0  0  0  0  0  0  0  0
    3.7194   -3.3306   -2.0549 C   0  0  0  0  0  0  0  0  0  0  0  0
    3.8910   -4.3446   -0.9218 C   0  0  0  0  0  0  0  0  0  0  0  0
    2.6235   -2.2851    0.6112 C   0  0  0  0  0  0  0  0  0  0  0  0
    2.5299   -1.5826   -0.7526 C   0  0  0  0  0  0  0  0  0  0  0  0
   -0.2409   -2.3699   -3.5666 C   0  0  0  0  0  0  0  0  0  0  0  0
  1  3  1  0
  1  5  2  0
  1 14  1  0
  2  9  1  0
  2 10  1  0
  2 13  1  0
  4 11  1  0
  4 12  1  0
  5  6  1  0
  6  7  2  0
  7  8  1  0
  8  9  1  0
  8 14  2  0
 10 11  1  0
 12 13  1  0
M  CHG  1   2   1
M  END
$$$$
