CypD-x0617-pandda-model
     RDKit          3D

 13 14  0  0  1  0  0  0  0  0999 V2000
    1.5377   -0.2801   -0.0404 C   0  0  0  0  0  0  0  0  0  0  0  0
    1.6848   -0.2953   -1.5325 N   0  0  0  0  0  0  0  0  0  0  0  0
    0.5060   -0.4636   -2.2124 C   0  0  0  0  0  0  0  0  0  0  0  0
   -0.1462    0.6600   -2.4628 N   0  0  0  0  0  0  0  0  0  0  0  0
    0.0313   -1.7295   -2.5453 C   0  0  0  0  0  0  0  0  0  0  0  0
    3.8737   -2.0929   -0.9281 N   0  0  0  0  0  0  0  0  0  0  0  0
   -1.2231   -1.8699   -3.0918 C   0  0  0  0  0  0  0  0  0  0  0  0
   -1.9440   -0.7104   -3.2839 C   0  0  0  0  0  0  0  0  0  0  0  0
   -1.3692    0.5036   -2.9564 C   0  0  0  0  0  0  0  0  0  0  0  0
    2.3764   -1.3575    0.6894 C   0  0  1  0  0  0  0  0  0  0  0  0
    1.9891   -2.7993    0.3217 C   0  0  0  0  0  0  0  0  0  0  0  0
    3.0471   -3.2803   -0.6748 C   0  0  0  0  0  0  0  0  0  0  0  0
    3.8428   -1.2842    0.2985 C   0  0  0  0  0  0  0  0  0  0  0  0
  1  2  1  0
 10  1  1  6
  2  3  1  0
  3  4  2  0
  3  5  1  0
  4  9  1  0
  5  7  2  0
  6 12  1  0
  6 13  1  0
  7  8  1  0
  8  9  2  0
 10 11  1  0
 10 13  1  0
 11 12  1  0
M  CHG  1   6   1
M  END
$$$$
