CypD-x0600-pandda-model
     RDKit          3D

 18 20  0  0  1  0  0  0  0  0999 V2000
   -3.8100   -3.8620   -2.9290 C   0  0  0  0  0  0  0  0  0  0  0  0
   -2.9690   -3.3400    2.0380 N   0  0  2  0  0  0  0  0  0  0  0  0
   -3.8750   -3.7620   -4.2650 O   0  0  0  0  0  0  0  0  0  0  0  0
   -3.1610   -4.9250   -2.3210 C   0  0  0  0  0  0  0  0  0  0  0  0
   -3.1860   -5.0480   -0.9400 C   0  0  0  0  0  0  0  0  0  0  0  0
   -3.8540   -4.1100   -0.1610 C   0  0  0  0  0  0  0  0  0  0  0  0
   -3.9280   -4.2550    1.3580 C   0  0  0  0  0  0  0  0  0  0  0  0
   -3.3360   -1.9110    1.8660 C   0  0  0  0  0  0  0  0  0  0  0  0
   -2.5170   -1.0230    2.7990 C   0  0  0  0  0  0  0  0  0  0  0  0
   -1.0550   -1.4350    2.8840 C   0  0  0  0  0  0  0  0  0  0  0  0
   -0.1550   -0.6040    3.5320 C   0  0  0  0  0  0  0  0  0  0  0  0
    1.1740   -0.9680    3.6490 C   0  0  0  0  0  0  0  0  0  0  0  0
    1.6110   -2.1640    3.1120 C   0  0  0  0  0  0  0  0  0  0  0  0
    0.7180   -2.9950    2.4600 C   0  0  0  0  0  0  0  0  0  0  0  0
   -0.6170   -2.6390    2.3420 C   0  0  0  0  0  0  0  0  0  0  0  0
   -1.5680   -3.5730    1.6100 C   0  0  0  0  0  0  0  0  0  0  0  0
   -4.4810   -3.0430   -0.7900 C   0  0  0  0  0  0  0  0  0  0  0  0
   -4.4480   -2.9090   -2.1600 C   0  0  0  0  0  0  0  0  0  0  0  0
  1  3  1  0
  1  4  2  0
  1 18  1  0
  2  7  1  6
  2  8  1  0
  2 16  1  0
  4  5  1  0
  5  6  2  0
  6  7  1  0
  6 17  1  0
  8  9  1  0
  9 10  1  0
 10 11  2  0
 10 15  1  0
 11 12  1  0
 12 13  2  0
 13 14  1  0
 14 15  2  0
 15 16  1  0
 17 18  2  0
M  CHG  1   2   1
M  END
$$$$
