CypD-x0525-pandda-model
     RDKit          3D

 15 16  0  0  1  0  0  0  0  0999 V2000
    4.2048   -5.7120   -2.1650 C   0  0  0  0  0  0  0  0  0  0  0  0
    4.1663   -5.8268   -4.5757 N   0  0  0  0  0  0  0  0  0  0  0  0
    3.9206   -4.9313   -3.4403 C   0  0  1  0  0  0  0  0  0  0  0  0
   -3.0825   -1.1137   -3.1580 N   0  0  0  0  0  0  0  0  0  0  0  0
    2.4860   -4.4169   -3.4525 C   0  0  0  0  0  0  0  0  0  0  0  0
   -3.7900   -3.3138   -2.6226 N   0  0  0  0  0  0  0  0  0  0  0  0
    1.3946   -5.2226   -3.7506 C   0  0  0  0  0  0  0  0  0  0  0  0
    0.1103   -4.7131   -3.6902 C   0  0  0  0  0  0  0  0  0  0  0  0
   -0.1443   -3.3952   -3.3135 C   0  0  0  0  0  0  0  0  0  0  0  0
    0.9649   -2.5937   -3.0469 C   0  0  0  0  0  0  0  0  0  0  0  0
    2.2538   -3.0921   -3.1148 C   0  0  0  0  0  0  0  0  0  0  0  0
   -1.5040   -2.8956   -3.1627 C   0  0  0  0  0  0  0  0  0  0  0  0
   -1.8614   -1.5689   -3.3501 C   0  0  0  0  0  0  0  0  0  0  0  0
   -3.9740   -2.0104   -2.7737 C   0  0  0  0  0  0  0  0  0  0  0  0
   -2.5504   -3.7234   -2.7879 C   0  0  0  0  0  0  0  0  0  0  0  0
  3  1  1  1
  2  3  1  0
  3  5  1  0
  4 13  2  0
  4 14  1  0
  5  7  2  0
  5 11  1  0
  6 14  2  0
  6 15  1  0
  7  8  1  0
  8  9  2  0
  9 10  1  0
  9 12  1  0
 10 11  2  0
 12 13  1  0
 12 15  2  0
M  CHG  1   2   1
M  END
$$$$
