CypD-x0290-pandda-model
     RDKit          3D

 13 13  0  0  0  0  0  0  0  0999 V2000
    2.1707   -2.2647   -2.4636 C   0  0  0  0  0  0  0  0  0  0  0  0
    0.9738   -3.9074   -3.8919 N   0  0  0  0  0  0  0  0  0  0  0  0
   -0.4239   -4.5193   -5.5407 O   0  0  0  0  0  0  0  0  0  0  0  0
    1.1795   -3.4280   -2.4961 C   0  0  0  0  0  0  0  0  0  0  0  0
   -4.9111   -3.3436   -3.1716 N   0  0  0  0  0  0  0  0  0  0  0  0
    2.1175   -4.6896   -4.4540 C   0  0  0  0  0  0  0  0  0  0  0  0
   -0.2464   -3.8442   -4.5384 C   0  0  0  0  0  0  0  0  0  0  0  0
   -1.3440   -3.0110   -4.0801 C   0  0  0  0  0  0  0  0  0  0  0  0
   -1.2032   -1.6288   -3.9435 C   0  0  0  0  0  0  0  0  0  0  0  0
   -2.2622   -0.8391   -3.5320 C   0  0  0  0  0  0  0  0  0  0  0  0
   -3.4885   -1.4183   -3.2640 C   0  0  0  0  0  0  0  0  0  0  0  0
   -3.6689   -2.7836   -3.4065 C   0  0  0  0  0  0  0  0  0  0  0  0
   -2.5924   -3.5642   -3.8022 C   0  0  0  0  0  0  0  0  0  0  0  0
  1  4  1  0
  2  4  1  0
  2  6  1  0
  2  7  1  0
  3  7  2  0
  5 12  1  0
  7  8  1  0
  8  9  2  0
  8 13  1  0
  9 10  1  0
 10 11  2  0
 11 12  1  0
 12 13  2  0
M  END
$$$$
