CypD-x0566-pandda-model
     RDKit          3D

 15 16  0  0  1  0  0  0  0  0999 V2000
   -0.6980    1.5380   -2.8270 C   0  0  0  0  0  0  0  0  0  0  0  0
   -1.2220    1.0800   -1.5070 N   0  0  0  0  0  0  0  0  0  0  0  0
   -2.1040   -0.7990   -2.4360 O   0  0  0  0  0  0  0  0  0  0  0  0
   -1.9520   -0.0980   -1.4550 C   0  0  0  0  0  0  0  0  0  0  0  0
   -0.8110    4.1960    0.4680 N   0  0  0  0  0  0  0  0  0  0  0  0
   -2.6300   -0.5500   -0.1590 C   0  0  1  0  0  0  0  0  0  0  0  0
   -3.3340   -1.8930   -0.0920 C   0  0  0  0  0  0  0  0  0  0  0  0
   -2.1170   -1.6490    0.7300 C   0  0  0  0  0  0  0  0  0  0  0  0
   -2.3000   -1.5090    2.2470 C   0  0  0  0  0  0  0  0  0  0  0  0
   -0.8530   -2.4380    0.3710 C   0  0  0  0  0  0  0  0  0  0  0  0
   -0.9180    1.9270   -0.4130 C   0  0  0  0  0  0  0  0  0  0  0  0
   -0.3960    1.4220    0.7650 C   0  0  0  0  0  0  0  0  0  0  0  0
   -0.0980    2.3100    1.7720 C   0  0  0  0  0  0  0  0  0  0  0  0
   -0.3150    3.6630    1.5770 C   0  0  0  0  0  0  0  0  0  0  0  0
   -1.0860    3.3140   -0.4850 C   0  0  0  0  0  0  0  0  0  0  0  0
  1  2  1  0
  2  4  1  0
  2 11  1  0
  3  4  2  0
  6  4  1  6
  5 14  2  0
  5 15  1  0
  6  7  1  0
  6  8  1  0
  7  8  1  0
  8  9  1  0
  8 10  1  0
 11 12  1  0
 11 15  2  0
 12 13  2  0
 13 14  1  0
M  END
$$$$
