CypD-x0135-pandda-model
     RDKit          3D

 18 19  0  0  0  0  0  0  0  0999 V2000
   -2.2471   -5.5775   -3.0247 C   0  0  0  0  0  0  0  0  0  0  0  0
   -1.9945   -4.2394   -3.5760 N   0  0  0  0  0  0  0  0  0  0  0  0
    1.5841   -1.6239   -3.7691 O   0  0  0  0  0  0  0  0  0  0  0  0
   -0.6555   -4.1556   -4.2200 C   0  0  0  0  0  0  0  0  0  0  0  0
   -0.6317   -1.7186   -3.9453 N   0  0  0  0  0  0  0  0  0  0  0  0
    0.4228    0.0121   -1.4775 O   0  0  0  0  0  0  0  0  0  0  0  0
   -0.5054   -2.7922   -4.9279 C   0  0  0  0  0  0  0  0  0  0  0  0
   -1.8306   -1.7768   -3.0203 C   0  0  0  0  0  0  0  0  0  0  0  0
   -2.1083   -3.2106   -2.5082 C   0  0  0  0  0  0  0  0  0  0  0  0
    0.5141   -1.0907   -3.5827 C   0  0  0  0  0  0  0  0  0  0  0  0
    0.4806    0.2509   -2.8725 C   0  0  0  0  0  0  0  0  0  0  0  0
    0.3228    1.0731   -0.6550 C   0  0  0  0  0  0  0  0  0  0  0  0
    1.1448    2.1797   -0.7978 C   0  0  0  0  0  0  0  0  0  0  0  0
    1.0392    3.2326    0.0888 C   0  0  0  0  0  0  0  0  0  0  0  0
    0.1066    3.1914    1.1092 C   0  0  0  0  0  0  0  0  0  0  0  0
   -0.0097    4.3612    2.0611 C   0  0  0  0  0  0  0  0  0  0  0  0
   -0.7140    2.0847    1.2490 C   0  0  0  0  0  0  0  0  0  0  0  0
   -0.6059    1.0223    0.3695 C   0  0  0  0  0  0  0  0  0  0  0  0
  1  2  1  0
  2  4  1  0
  2  9  1  0
  3 10  2  0
  4  7  1  0
  5  7  1  0
  5  8  1  0
  5 10  1  0
  6 11  1  0
  6 12  1  0
  8  9  1  0
 10 11  1  0
 12 13  2  0
 12 18  1  0
 13 14  1  0
 14 15  2  0
 15 16  1  0
 15 17  1  0
 17 18  2  0
M  END
$$$$
