CypD-x0490-pandda-model
     RDKit          3D

 13 13  0  0  0  0  0  0  0  0999 V2000
    4.5147   -1.9473   -0.1306 C   0  0  0  0  0  0  0  0  0  0  0  0
    3.7025   -1.9520   -1.1330 N   0  0  0  0  0  0  0  0  0  0  0  0
    2.7873    0.1200   -0.7268 O   0  0  0  0  0  0  0  0  0  0  0  0
    3.6810   -3.1038   -2.0751 C   0  0  0  0  0  0  0  0  0  0  0  0
   -0.7532   -1.5488   -3.3644 N   0  0  0  0  0  0  0  0  0  0  0  0
    1.9917   -0.9998   -2.4502 O   0  0  0  0  0  0  0  0  0  0  0  0
    2.8183   -0.8798   -1.4064 C   0  0  0  0  0  0  0  0  0  0  0  0
   -2.4908   -2.6299   -2.4921 N   0  0  0  0  0  0  0  0  0  0  0  0
    1.0965    0.0424   -2.8202 C   0  0  0  0  0  0  0  0  0  0  0  0
    0.0892   -0.4444   -3.8724 C   0  0  0  0  0  0  0  0  0  0  0  0
   -0.4683   -2.8636   -3.3828 C   0  0  0  0  0  0  0  0  0  0  0  0
   -1.5262   -3.5039   -2.8431 C   0  0  0  0  0  0  0  0  0  0  0  0
   -1.9892   -1.4780   -2.8176 C   0  0  0  0  0  0  0  0  0  0  0  0
  1  2  2  0
  2  4  1  0
  2  7  1  0
  3  7  2  0
  5 10  1  0
  5 11  1  0
  5 13  1  0
  6  7  1  0
  6  9  1  0
  8 12  1  0
  8 13  2  0
  9 10  1  0
 11 12  2  0
M  CHG  1   2   1
M  END
$$$$
