CypD-x0554-pandda-model
     RDKit          3D

 14 14  0  0  0  0  0  0  0  0999 V2000
   -0.1888    3.0092    1.1716 C   0  0  0  0  0  0  0  0  0  0  0  0
   -0.4010    2.9263    2.6207 N   0  0  0  0  0  0  0  0  0  0  0  0
   -0.4461    4.2315    4.8447 O   0  0  0  0  0  0  0  0  0  0  0  0
   -0.2422    4.3973    3.4222 S   0  0  0  0  0  0  0  0  0  0  0  0
    0.3865    1.8572    3.2274 C   0  0  0  0  0  0  0  0  0  0  0  0
    1.3725    4.6436    3.2418 N   0  0  0  0  0  0  0  0  0  0  0  0
   -0.8765    5.4392    2.6472 O   0  0  0  0  0  0  0  0  0  0  0  0
   -0.0708    0.4777    2.7711 C   0  0  0  0  0  0  0  0  0  0  0  0
    0.8562   -0.4585    2.3267 C   0  0  0  0  0  0  0  0  0  0  0  0
    0.4546   -1.7259    1.9295 C   0  0  0  0  0  0  0  0  0  0  0  0
   -0.8840   -2.0766    1.9839 C   0  0  0  0  0  0  0  0  0  0  0  0
   -1.7927   -1.1362    2.4322 C   0  0  0  0  0  0  0  0  0  0  0  0
   -1.4141    0.1359    2.8104 C   0  0  0  0  0  0  0  0  0  0  0  0
   -3.0503   -1.4698    2.5143 F   0  0  0  0  0  0  0  0  0  0  0  0
  1  2  1  0
  2  4  1  0
  2  5  1  0
  3  4  2  0
  4  6  1  0
  4  7  2  0
  5  8  1  0
  8  9  2  0
  8 13  1  0
  9 10  1  0
 10 11  2  0
 11 12  1  0
 12 13  2  0
 12 14  1  0
M  END
$$$$
