CypD-x0520-pandda-model
     RDKit          3D

 14 15  0  0  0  0  0  0  0  0999 V2000
    1.1113   -1.3434    3.4694 C   0  0  0  0  0  0  0  0  0  0  0  0
   -2.9380   -2.3696    1.9217 N   0  0  0  0  0  0  0  0  0  0  0  0
    2.1590   -1.9797    3.7298 O   0  0  0  0  0  0  0  0  0  0  0  0
   -3.6068   -2.0692   -0.7552 S   0  0  0  0  0  0  0  0  0  0  0  0
    1.1663   -0.0185    3.0350 C   0  0  0  0  0  0  0  0  0  0  0  0
    0.0070    0.6482    2.7000 C   0  0  0  0  0  0  0  0  0  0  0  0
   -1.2241    0.0183    2.8294 C   0  0  0  0  0  0  0  0  0  0  0  0
   -1.2826   -1.3013    3.2658 C   0  0  0  0  0  0  0  0  0  0  0  0
   -2.5887   -2.0558    3.3224 C   0  0  0  0  0  0  0  0  0  0  0  0
   -1.8855   -3.0980    1.1400 C   0  0  0  0  0  0  0  0  0  0  0  0
   -1.9294   -2.6459   -0.3306 C   0  0  0  0  0  0  0  0  0  0  0  0
   -4.6431   -3.1642    0.2668 C   0  0  0  0  0  0  0  0  0  0  0  0
   -4.2832   -2.9882    1.7558 C   0  0  0  0  0  0  0  0  0  0  0  0
   -0.1232   -1.9741    3.5789 C   0  0  0  0  0  0  0  0  0  0  0  0
  1  3  1  0
  1  5  2  0
  1 14  1  0
  2  9  1  0
  2 10  1  0
  2 13  1  0
  4 11  1  0
  4 12  1  0
  5  6  1  0
  6  7  2  0
  7  8  1  0
  8  9  1  0
  8 14  2  0
 10 11  1  0
 12 13  1  0
M  CHG  2   2   1   3  -1
M  END
$$$$
