CypD-x0566-pandda-model
     RDKit          3D

 15 16  0  0  1  0  0  0  0  0999 V2000
    0.3309   -5.4434    2.7036 C   0  0  0  0  0  0  0  0  0  0  0  0
    0.5406   -4.6500    3.9490 N   0  0  0  0  0  0  0  0  0  0  0  0
    0.6186   -4.7156    6.2137 O   0  0  0  0  0  0  0  0  0  0  0  0
    0.2465   -5.2087    5.1736 C   0  0  0  0  0  0  0  0  0  0  0  0
    0.6976   -0.9695    4.2506 N   0  0  0  0  0  0  0  0  0  0  0  0
   -0.5655   -6.4986    5.2469 C   0  0  1  0  0  0  0  0  0  0  0  0
   -1.5303   -6.7545    6.3850 C   0  0  0  0  0  0  0  0  0  0  0  0
   -2.0468   -6.5093    5.0083 C   0  0  0  0  0  0  0  0  0  0  0  0
   -2.6437   -7.6822    4.2247 C   0  0  0  0  0  0  0  0  0  0  0  0
   -2.8069   -5.2025    4.7536 C   0  0  0  0  0  0  0  0  0  0  0  0
    1.0156   -3.3288    3.8053 C   0  0  0  0  0  0  0  0  0  0  0  0
    2.1570   -3.0598    3.0697 C   0  0  0  0  0  0  0  0  0  0  0  0
    2.5408   -1.7418    2.9368 C   0  0  0  0  0  0  0  0  0  0  0  0
    1.7870   -0.7479    3.5347 C   0  0  0  0  0  0  0  0  0  0  0  0
    0.3494   -2.2419    4.3783 C   0  0  0  0  0  0  0  0  0  0  0  0
  1  2  1  0
  2  4  1  0
  2 11  1  0
  3  4  2  0
  6  4  1  1
  5 14  2  0
  5 15  1  0
  6  7  1  0
  6  8  1  0
  7  8  1  0
  8  9  1  0
  8 10  1  0
 11 12  1  0
 11 15  2  0
 12 13  2  0
 13 14  1  0
M  END
$$$$
