CypD-x0657-pandda-model
     RDKit          3D

 18 20  0  0  0  0  0  0  0  0999 V2000
    1.7236   -3.4374    4.1673 C   0  0  0  0  0  0  0  0  0  0  0  0
    2.2687   -4.3403    4.6056 N   0  0  0  0  0  0  0  0  0  0  0  0
    1.0019   -2.2798    3.7288 C   0  0  0  0  0  0  0  0  0  0  0  0
   -0.7110    2.0165    1.5589 N   0  0  0  0  0  0  0  0  0  0  0  0
    1.6523   -1.0866    3.4344 C   0  0  0  0  0  0  0  0  0  0  0  0
    0.1089    3.7476    0.4090 N   0  0  0  0  0  0  0  0  0  0  0  0
    0.9365    0.0448    3.0864 C   0  0  0  0  0  0  0  0  0  0  0  0
   -0.4476    0.0009    3.0068 C   0  0  0  0  0  0  0  0  0  0  0  0
   -1.2758    1.2334    2.6749 C   0  0  0  0  0  0  0  0  0  0  0  0
   -0.2650    3.3008    1.5616 C   0  0  0  0  0  0  0  0  0  0  0  0
   -0.1045    2.6851   -0.4285 C   0  0  0  0  0  0  0  0  0  0  0  0
    0.1171    2.5522   -1.7989 C   0  0  0  0  0  0  0  0  0  0  0  0
   -0.1602    1.3509   -2.4186 C   0  0  0  0  0  0  0  0  0  0  0  0
   -0.6817    0.2735   -1.6961 C   0  0  0  0  0  0  0  0  0  0  0  0
   -0.9159    0.3924   -0.3480 C   0  0  0  0  0  0  0  0  0  0  0  0
   -0.6153    1.6073    0.2728 C   0  0  0  0  0  0  0  0  0  0  0  0
   -1.0995   -1.1968    3.2593 C   0  0  0  0  0  0  0  0  0  0  0  0
   -0.3822   -2.3199    3.6212 C   0  0  0  0  0  0  0  0  0  0  0  0
  1  2  3  0
  1  3  1  0
  3  5  2  0
  3 18  1  0
  4  9  1  0
  4 10  1  0
  4 16  1  0
  5  7  1  0
  6 10  2  0
  6 11  1  0
  7  8  2  0
  8  9  1  0
  8 17  1  0
 11 12  2  0
 11 16  1  0
 12 13  1  0
 13 14  2  0
 14 15  1  0
 15 16  2  0
 17 18  2  0
M  END
$$$$
