CypD-x0945-pandda-model
     RDKit          3D

 12 13  0  0  0  0  0  0  0  0999 V2000
   -2.6930   -5.3910    5.1690 C   0  0  0  0  0  0  0  0  0  0  0  0
   -1.6640   -4.3730    4.7930 N   0  0  0  0  0  0  0  0  0  0  0  0
   -1.7980   -3.2630    4.0490 C   0  0  0  0  0  0  0  0  0  0  0  0
   -2.9430   -3.0440    3.3990 N   0  0  0  0  0  0  0  0  0  0  0  0
   -3.2040   -1.8930    2.7000 C   0  0  0  0  0  0  0  0  0  0  0  0
   -2.2590   -0.9300    2.6070 C   0  0  0  0  0  0  0  0  0  0  0  0
   -0.9850   -1.1070    3.2070 C   0  0  0  0  0  0  0  0  0  0  0  0
    0.0210   -0.1400    3.0970 C   0  0  0  0  0  0  0  0  0  0  0  0
    1.2520   -0.3340    3.6700 C   0  0  0  0  0  0  0  0  0  0  0  0
    1.5090   -1.5040    4.3760 C   0  0  0  0  0  0  0  0  0  0  0  0
    0.5320   -2.4610    4.5030 C   0  0  0  0  0  0  0  0  0  0  0  0
   -0.7420   -2.2940    3.9300 C   0  0  0  0  0  0  0  0  0  0  0  0
  1  2  1  0
  2  3  1  0
  3  4  2  0
  3 12  1  0
  4  5  1  0
  5  6  2  0
  6  7  1  0
  7  8  1  0
  7 12  2  0
  8  9  2  0
  9 10  1  0
 10 11  2  0
 11 12  1  0
M  CHG  1   4   1
M  END
$$$$
