CypD-x0618-pandda-model
     RDKit          3D

 15 15  0  0  1  0  0  0  0  0999 V2000
   -3.5700   -2.4970    0.1500 C   0  0  0  0  0  0  0  0  0  0  0  0
   -2.1600   -1.1850    1.7490 N   0  0  0  0  0  0  0  0  0  0  0  0
   -2.7950   -0.3440   -0.2580 O   0  0  0  0  0  0  0  0  0  0  0  0
    0.0270    3.9140    3.6860 S   0  0  0  0  0  0  0  0  0  0  0  0
   -2.8050   -1.2530    0.5400 C   0  0  0  0  0  0  0  0  0  0  0  0
   -0.0820    2.4910    2.8030 N   0  0  0  0  0  0  0  0  0  0  0  0
   -0.5050    3.6400    4.9990 O   0  0  0  0  0  0  0  0  0  0  0  0
   -1.9760   -2.3390    2.6710 C   0  0  0  0  0  0  0  0  0  0  0  0
   -0.5550    4.9400    2.8510 O   0  0  0  0  0  0  0  0  0  0  0  0
   -0.4850   -2.5030    2.9660 C   0  0  0  0  0  0  0  0  0  0  0  0
    0.0980   -1.2290    3.5860 C   0  0  0  0  0  0  0  0  0  0  0  0
   -0.1720    0.0140    2.7100 C   0  0  2  0  0  0  0  0  0  0  0  0
    0.2790    1.2590    3.4910 C   0  0  0  0  0  0  0  0  0  0  0  0
    1.7790    4.2040    3.8190 C   0  0  0  0  0  0  0  0  0  0  0  0
   -1.6560    0.1110    2.2930 C   0  0  0  0  0  0  0  0  0  0  0  0
  1  5  1  0
  2  5  1  0
  2  8  1  0
  2 15  1  0
  3  5  2  0
  4  6  1  0
  4  7  2  0
  4  9  2  0
  4 14  1  0
  6 13  1  0
  8 10  1  0
 10 11  1  0
 11 12  1  0
 12 13  1  1
 12 15  1  0
M  END
$$$$
