CypD-x0135-pandda-model
     RDKit          3D

 18 19  0  0  0  0  0  0  0  0999 V2000
    3.6140   -3.5209   -2.6525 C   0  0  0  0  0  0  0  0  0  0  0  0
    3.8758   -2.8200   -1.3666 N   0  0  0  0  0  0  0  0  0  0  0  0
    3.3097   -2.0976    3.5439 O   0  0  0  0  0  0  0  0  0  0  0  0
    3.8549   -3.7477   -0.1972 C   0  0  0  0  0  0  0  0  0  0  0  0
    3.2817   -1.8153    1.3311 N   0  0  0  0  0  0  0  0  0  0  0  0
    0.9123   -0.6408    3.7504 O   0  0  0  0  0  0  0  0  0  0  0  0
    4.1703   -3.0079    1.1142 C   0  0  0  0  0  0  0  0  0  0  0  0
    3.1992   -0.9010    0.1544 C   0  0  0  0  0  0  0  0  0  0  0  0
    2.9641   -1.6485   -1.1724 C   0  0  0  0  0  0  0  0  0  0  0  0
    2.9087   -1.4512    2.6018 C   0  0  0  0  0  0  0  0  0  0  0  0
    1.9791   -0.2656    2.8940 C   0  0  0  0  0  0  0  0  0  0  0  0
   -0.1237   -1.3235    3.2206 C   0  0  0  0  0  0  0  0  0  0  0  0
    0.0163   -2.6191    2.7404 C   0  0  0  0  0  0  0  0  0  0  0  0
   -1.0811   -3.2855    2.2278 C   0  0  0  0  0  0  0  0  0  0  0  0
   -2.3206   -2.6681    2.1975 C   0  0  0  0  0  0  0  0  0  0  0  0
   -3.5314   -3.3918    1.6399 C   0  0  0  0  0  0  0  0  0  0  0  0
   -2.4579   -1.3804    2.6907 C   0  0  0  0  0  0  0  0  0  0  0  0
   -1.3614   -0.7097    3.2003 C   0  0  0  0  0  0  0  0  0  0  0  0
  1  2  1  0
  2  4  1  0
  2  9  1  0
  3 10  2  0
  4  7  1  0
  5  7  1  0
  5  8  1  0
  5 10  1  0
  6 11  1  0
  6 12  1  0
  8  9  1  0
 10 11  1  0
 12 13  2  0
 12 18  1  0
 13 14  1  0
 14 15  2  0
 15 16  1  0
 15 17  1  0
 17 18  2  0
M  CHG  1   2   1
M  END
$$$$
