CypD-x0296-pandda-model
     RDKit          3D

 13 14  0  0  1  0  0  0  0  0999 V2000
   -4.1300   -3.7790   -0.0770 C   0  0  2  0  0  0  0  0  0  0  0  0
   -2.6320   -2.7780    2.2280 N   0  0  1  0  0  0  0  0  0  0  0  0
   -3.8810   -4.4170   -1.2770 O   0  0  0  0  0  0  0  0  0  0  0  0
    0.5090   -1.0070    1.3180 S   0  0  0  0  0  0  0  0  0  0  0  0
   -3.3800   -2.4450   -0.1020 C   0  0  0  0  0  0  0  0  0  0  0  0
   -3.3030   -1.8180    1.2890 C   0  0  0  0  0  0  0  0  0  0  0  0
   -2.2370   -2.1560    3.5620 C   0  0  0  0  0  0  0  0  0  0  0  0
   -1.0050   -1.2170    3.4970 C   0  0  2  0  0  0  0  0  0  0  0  0
   -1.2940    0.1140    2.8010 C   0  0  0  0  0  0  0  0  0  0  0  0
   -0.5960    0.3410    1.6860 C   0  0  0  0  0  0  0  0  0  0  0  0
    0.1080   -1.8320    2.6560 C   0  0  0  0  0  0  0  0  0  0  0  0
   -3.5280   -3.9760    2.3980 C   0  0  0  0  0  0  0  0  0  0  0  0
   -3.6680   -4.7070    1.0560 C   0  0  0  0  0  0  0  0  0  0  0  0
  1  3  1  6
  1  5  1  0
  1 13  1  0
  2  6  1  0
  2  7  1  1
  2 12  1  0
  4 10  1  0
  4 11  2  0
  5  6  1  0
  8  7  1  6
  8  9  1  0
  8 11  1  0
  9 10  2  0
 12 13  1  0
M  CHG  2   2   1   4   1
M  END
$$$$
