CypD-x0974-pandda-model
     RDKit          3D

 14 15  0  0  1  0  0  0  0  0999 V2000
   -7.4684   -5.2382   -5.4397 C   0  0  0  0  0  0  0  0  0  0  0  0
   -5.4010   -4.4774   -4.2874 N   0  0  0  0  0  0  0  0  0  0  0  0
   -5.8088   -3.9342   -6.4371 O   0  0  0  0  0  0  0  0  0  0  0  0
   -6.1559   -4.4894   -5.4214 C   0  0  0  0  0  0  0  0  0  0  0  0
   -5.8108   -5.0712   -2.9939 C   0  0  0  0  0  0  0  0  0  0  0  0
   -4.6655   -4.7689   -2.0371 C   0  0  0  0  0  0  0  0  0  0  0  0
   -4.0443   -3.4932   -2.5920 C   0  0  0  0  0  0  0  0  0  0  0  0
   -4.2277   -3.5876   -4.1060 C   0  0  1  0  0  0  0  0  0  0  0  0
   -2.9543   -4.1288   -4.7773 C   0  0  0  0  0  0  0  0  0  0  0  0
   -2.7746   -5.4725   -5.0843 C   0  0  0  0  0  0  0  0  0  0  0  0
   -1.5953   -5.9174   -5.6595 C   0  0  0  0  0  0  0  0  0  0  0  0
   -0.5783   -5.0213   -5.9390 C   0  0  0  0  0  0  0  0  0  0  0  0
   -0.7449   -3.6812   -5.6421 C   0  0  0  0  0  0  0  0  0  0  0  0
   -1.9234   -3.2421   -5.0628 C   0  0  0  0  0  0  0  0  0  0  0  0
  1  4  1  0
  2  4  1  0
  2  5  1  0
  2  8  1  0
  3  4  2  0
  5  6  1  0
  6  7  1  0
  7  8  1  0
  8  9  1  6
  9 10  2  0
  9 14  1  0
 10 11  1  0
 11 12  2  0
 12 13  1  0
 13 14  2  0
M  END
$$$$
