CypD-x0732-pandda-model
     RDKit          3D

 15 16  0  0  1  0  0  0  0  0999 V2000
    0.7624    0.6734   -2.3138 C   0  0  0  0  0  0  0  0  0  0  0  0
    0.3417    0.8898    0.1146 N   0  0  0  0  0  0  0  0  0  0  0  0
   -0.7929   -2.1226    3.2401 O   0  0  0  0  0  0  0  0  0  0  0  0
    0.1978    3.1375   -1.2442 S   0  0  0  0  0  0  0  0  0  0  0  0
    0.9978    1.4967   -1.0530 C   0  0  2  0  0  0  0  0  0  0  0  0
   -0.5460    1.6169    0.6702 N   0  0  0  0  0  0  0  0  0  0  0  0
   -1.6437    3.6987    0.4864 O   0  0  0  0  0  0  0  0  0  0  0  0
   -1.3330    1.1991    1.8579 C   0  0  0  0  0  0  0  0  0  0  0  0
    0.3919   -1.6404    3.4629 N   0  0  0  0  0  0  0  0  0  0  0  0
   -0.8676   -0.1242    2.4637 C   0  0  0  0  0  0  0  0  0  0  0  0
    0.3886   -0.4449    2.9949 C   0  0  0  0  0  0  0  0  0  0  0  0
    1.6342    0.4156    3.0148 C   0  0  0  0  0  0  0  0  0  0  0  0
   -1.5666   -1.2617    2.6381 C   0  0  0  0  0  0  0  0  0  0  0  0
   -2.9810   -1.6824    2.2848 C   0  0  0  0  0  0  0  0  0  0  0  0
   -0.8301    2.8805    0.1409 C   0  0  0  0  0  0  0  0  0  0  0  0
  5  1  1  6
  2  5  1  0
  2  6  2  0
  3  9  1  0
  3 13  1  0
  4  5  1  0
  4 15  1  0
  6  8  1  0
  6 15  1  0
  7 15  2  0
  8 10  1  0
  9 11  2  0
 10 11  1  0
 10 13  2  0
 11 12  1  0
 13 14  1  0
M  CHG  1   6   1
M  END
$$$$
