CypD-x0898-pandda-model
     RDKit          3D

 14 15  0  0  1  0  0  0  0  0999 V2000
   -3.7713   -1.6757   -0.6414 C   0  0  0  0  0  0  0  0  0  0  0  0
    2.0219   -1.5967    3.3782 N   0  0  0  0  0  0  0  0  0  0  0  0
   -3.0190   -0.6412   -0.0400 O   0  0  0  0  0  0  0  0  0  0  0  0
   -1.8640   -0.2245   -0.6125 C   0  0  0  0  0  0  0  0  0  0  0  0
    1.1874    1.0842    0.6446 O   0  0  0  0  0  0  0  0  0  0  0  0
   -1.6322   -0.2523   -1.9854 C   0  0  0  0  0  0  0  0  0  0  0  0
   -0.4050    0.1460   -2.5043 C   0  0  0  0  0  0  0  0  0  0  0  0
    0.6048    0.5809   -1.6588 C   0  0  0  0  0  0  0  0  0  0  0  0
    0.3466    0.6335   -0.3018 C   0  0  0  0  0  0  0  0  0  0  0  0
    0.4613    1.2580    1.8557 C   0  0  2  0  0  0  0  0  0  0  0  0
    1.3330    0.9094    3.0628 C   0  0  0  0  0  0  0  0  0  0  0  0
    1.7479   -0.5125    3.1607 C   0  0  0  0  0  0  0  0  0  0  0  0
   -0.8440    0.4516    1.6975 C   0  0  0  0  0  0  0  0  0  0  0  0
   -0.8635    0.2509    0.2134 C   0  0  0  0  0  0  0  0  0  0  0  0
  1  3  1  0
  2 12  3  0
  3  4  1  0
  4  6  2  0
  4 14  1  0
  5  9  1  0
  5 10  1  0
  6  7  1  0
  7  8  2  0
  8  9  1  0
  9 14  2  0
 10 11  1  1
 10 13  1  0
 11 12  1  0
 13 14  1  0
M  END
$$$$
