CypD-x0378-pandda-model
     RDKit          3D

 15 16  0  0  0  0  0  0  0  0999 V2000
   -3.1915   -2.7596   -2.2494 C   0  0  0  0  0  0  0  0  0  0  0  0
   -4.3893   -3.0299   -0.1044 N   0  0  0  0  0  0  0  0  0  0  0  0
   -4.2564   -2.1873   -1.3195 C   0  0  0  0  0  0  0  0  0  0  0  0
   -1.4242   -2.8959    2.8277 N   0  0  0  0  0  0  0  0  0  0  0  0
   -3.2107   -3.1027    0.7875 C   0  0  0  0  0  0  0  0  0  0  0  0
    2.6576   -3.1126    3.9341 N   0  0  0  0  0  0  0  0  0  0  0  0
   -2.6624   -1.7039    1.0970 C   0  0  0  0  0  0  0  0  0  0  0  0
   -2.0754   -1.5994    2.4988 C   0  0  0  0  0  0  0  0  0  0  0  0
   -2.3603   -4.0547    2.9594 C   0  0  0  0  0  0  0  0  0  0  0  0
   -3.5857   -3.8621    2.0613 C   0  0  0  0  0  0  0  0  0  0  0  0
   -0.0864   -2.9723    3.2195 C   0  0  0  0  0  0  0  0  0  0  0  0
    0.6658   -4.1297    3.0758 C   0  0  0  0  0  0  0  0  0  0  0  0
    1.9960   -4.1484    3.4452 C   0  0  0  0  0  0  0  0  0  0  0  0
    1.9425   -2.0069    4.0663 C   0  0  0  0  0  0  0  0  0  0  0  0
    0.6032   -1.8951    3.7586 C   0  0  0  0  0  0  0  0  0  0  0  0
  1  3  1  0
  2  3  1  0
  2  5  1  0
  4  8  1  0
  4  9  1  0
  4 11  1  0
  5  7  1  0
  5 10  1  0
  6 13  2  0
  6 14  1  0
  7  8  1  0
  9 10  1  0
 11 12  2  0
 11 15  1  0
 12 13  1  0
 14 15  2  0
M  CHG  1   2   1
M  END
$$$$
