CypD-x0662-pandda-model
     RDKit          3D

 14 14  0  0  0  0  0  0  0  0999 V2000
    1.2911   -1.5385   -3.0749 C   0  0  0  0  0  0  0  0  0  0  0  0
   -0.9273   -1.1057   -2.1068 N   0  0  0  0  0  0  0  0  0  0  0  0
   -0.4008    1.0940   -2.3339 O   0  0  0  0  0  0  0  0  0  0  0  0
   -0.2152   -1.7394   -3.2262 C   0  0  0  0  0  0  0  0  0  0  0  0
   -0.3374    0.2881    0.8295 N   0  0  0  0  0  0  0  0  0  0  0  0
   -0.7551   -1.2019   -4.5398 C   0  0  0  0  0  0  0  0  0  0  0  0
    1.5064    1.0509    2.5416 N   0  0  0  0  0  0  0  0  0  0  0  0
   -0.8634    0.1879   -1.6733 C   0  0  0  0  0  0  0  0  0  0  0  0
   -1.3646    0.4775   -0.2496 C   0  0  0  0  0  0  0  0  0  0  0  0
    0.3536   -1.0165    0.6961 C   0  0  0  0  0  0  0  0  0  0  0  0
    1.3248   -1.3427    1.8354 C   0  0  0  0  0  0  0  0  0  0  0  0
    2.2604   -0.1878    2.1977 C   0  0  0  0  0  0  0  0  0  0  0  0
    0.1913    0.8628    3.2196 C   0  0  0  0  0  0  0  0  0  0  0  0
   -0.9068    0.5312    2.1796 C   0  0  0  0  0  0  0  0  0  0  0  0
  1  4  1  0
  2  4  1  0
  2  8  1  0
  3  8  2  0
  4  6  1  0
  5  9  1  0
  5 10  1  0
  5 14  1  0
  7 12  1  0
  7 13  1  0
  8  9  1  0
 10 11  1  0
 11 12  1  0
 13 14  1  0
M  CHG  1   7   1
M  END
$$$$
