CypD-x0936-pandda-model
     RDKit          3D

 13 14  0  0  0  0  0  0  0  0999 V2000
    0.9646    1.4004   -0.3412 C   0  0  0  0  0  0  0  0  0  0  0  0
    0.6535    1.0678   -1.6356 N   0  0  0  0  0  0  0  0  0  0  0  0
    1.7622    0.7040    0.2582 O   0  0  0  0  0  0  0  0  0  0  0  0
   -0.7321    1.1773   -2.1658 C   0  0  0  0  0  0  0  0  0  0  0  0
   -0.4567    3.8870    1.8257 N   0  0  0  0  0  0  0  0  0  0  0  0
   -0.4334   -1.0835   -3.0891 O   0  0  0  0  0  0  0  0  0  0  0  0
   -0.9863    0.1896   -3.3241 C   0  0  0  0  0  0  0  0  0  0  0  0
   -0.3319    4.6418    0.7094 N   0  0  0  0  0  0  0  0  0  0  0  0
    0.9523   -1.1184   -2.8214 C   0  0  0  0  0  0  0  0  0  0  0  0
    1.5734    0.2462   -2.4691 C   0  0  0  0  0  0  0  0  0  0  0  0
    0.3726    2.5286    0.3319 C   0  0  0  0  0  0  0  0  0  0  0  0
   -0.0414    2.6331    1.6218 C   0  0  0  0  0  0  0  0  0  0  0  0
    0.1441    3.8126   -0.1761 C   0  0  0  0  0  0  0  0  0  0  0  0
  1  2  1  0
  1  3  2  0
  1 11  1  0
  2  4  1  0
  2 10  1  0
  4  7  1  0
  5  8  1  0
  5 12  1  0
  6  7  1  0
  6  9  1  0
  8 13  2  0
  9 10  1  0
 11 12  2  0
 11 13  1  0
M  END
$$$$
