CypD-x0309-pandda-model
     RDKit          3D

 15 16  0  0  0  0  0  0  0  0999 V2000
    1.4840    4.7020    3.3660 C   0  0  0  0  0  0  0  0  0  0  0  0
   -0.9280    4.2260    0.8320 N   0  0  0  0  0  0  0  0  0  0  0  0
   -1.0140    5.2380    3.8290 O   0  0  0  0  0  0  0  0  0  0  0  0
   -0.1830    4.0920    3.5250 S   0  0  0  0  0  0  0  0  0  0  0  0
   -0.5110    3.4820    1.8280 C   0  0  0  0  0  0  0  0  0  0  0  0
   -0.2890    2.1910    1.4370 N   0  0  0  0  0  0  0  0  0  0  0  0
   -0.1510    3.0080    4.4860 O   0  0  0  0  0  0  0  0  0  0  0  0
   -2.7830   -1.5670    2.5900 S   0  0  0  0  0  0  0  0  0  0  0  0
   -0.9970    3.3940   -0.2200 C   0  0  0  0  0  0  0  0  0  0  0  0
   -0.2970   -1.2060    3.0580 N   0  0  0  0  0  0  0  0  0  0  0  0
   -0.6070    2.1560    0.1280 C   0  0  0  0  0  0  0  0  0  0  0  0
    0.2720    1.0180    2.1620 C   0  0  0  0  0  0  0  0  0  0  0  0
   -0.7590   -0.0710    2.4110 C   0  0  0  0  0  0  0  0  0  0  0  0
   -2.0600   -0.0710    2.0760 C   0  0  0  0  0  0  0  0  0  0  0  0
   -1.2300   -2.0570    3.2270 C   0  0  0  0  0  0  0  0  0  0  0  0
  1  4  1  0
  2  5  2  0
  2  9  1  0
  3  4  2  0
  4  5  1  0
  4  7  2  0
  5  6  1  0
  6 11  1  0
  6 12  1  0
  8 14  1  0
  8 15  1  0
  9 11  2  0
 10 13  1  0
 10 15  2  0
 12 13  1  0
 13 14  2  0
M  END
$$$$
