CypD-x0456-pandda-model
     RDKit          3D

 14 15  0  0  0  0  0  0  0  0999 V2000
   -1.6608   -4.4259    2.3387 C   0  0  0  0  0  0  0  0  0  0  0  0
   -2.6063   -3.4319   -1.7618 N   0  0  0  0  0  0  0  0  0  0  0  0
   -2.2173   -3.6235    3.3240 O   0  0  0  0  0  0  0  0  0  0  0  0
   -1.9305   -3.8280    0.9490 C   0  0  0  0  0  0  0  0  0  0  0  0
   -0.8494   -2.7372   -3.1409 N   0  0  0  0  0  0  0  0  0  0  0  0
   -3.4312   -3.7314    0.6107 C   0  0  0  0  0  0  0  0  0  0  0  0
   -2.7303   -1.3479   -2.7293 N   0  0  0  0  0  0  0  0  0  0  0  0
   -3.6543   -3.0424   -0.7451 C   0  0  0  0  0  0  0  0  0  0  0  0
   -1.9245   -4.7252   -1.4744 C   0  0  0  0  0  0  0  0  0  0  0  0
   -1.1810   -4.6365   -0.1343 C   0  0  0  0  0  0  0  0  0  0  0  0
   -2.0279   -2.4653   -2.5675 C   0  0  0  0  0  0  0  0  0  0  0  0
   -0.3206   -1.7664   -3.8515 C   0  0  0  0  0  0  0  0  0  0  0  0
   -0.9601   -0.5694   -4.0443 C   0  0  0  0  0  0  0  0  0  0  0  0
   -2.1819   -0.4049   -3.4487 C   0  0  0  0  0  0  0  0  0  0  0  0
  1  3  1  0
  1  4  1  0
  2  8  1  0
  2  9  1  0
  2 11  1  0
  4  6  1  0
  4 10  1  0
  5 11  2  0
  5 12  1  0
  6  8  1  0
  7 11  1  0
  7 14  2  0
  9 10  1  0
 12 13  2  0
 13 14  1  0
M  END
$$$$
