CypD-x0527-pandda-model
     RDKit          3D

 12 12  0  0  0  0  0  0  0  0999 V2000
   -1.6280    0.3140    2.2200 C   0  0  0  0  0  0  0  0  0  0  0  0
   -1.1900    1.4380    1.3790 N   0  0  0  0  0  0  0  0  0  0  0  0
   -0.9880    4.5960   -1.8190 O   0  0  0  0  0  0  0  0  0  0  0  0
   -1.4710    1.6290    0.0860 C   0  0  0  0  0  0  0  0  0  0  0  0
   -1.0790    2.5880   -2.7050 N   0  0  0  0  0  0  0  0  0  0  0  0
   -0.8960    2.8000   -0.3140 C   0  0  0  0  0  0  0  0  0  0  0  0
   -0.4380    2.4410    1.8590 N   0  0  0  0  0  0  0  0  0  0  0  0
   -0.9610    3.3950   -1.6280 C   0  0  0  0  0  0  0  0  0  0  0  0
   -0.2560    3.2540    0.8540 C   0  0  0  0  0  0  0  0  0  0  0  0
    0.5870    4.5310    1.0030 C   0  0  0  0  0  0  0  0  0  0  0  0
    1.3390    4.7510   -0.0700 F   0  0  0  0  0  0  0  0  0  0  0  0
   -0.1990    5.6040    1.1030 F   0  0  0  0  0  0  0  0  0  0  0  0
  1  2  1  0
  2  4  1  0
  2  7  1  0
  3  8  2  0
  4  6  2  0
  5  8  1  0
  6  8  1  0
  6  9  1  0
  7  9  2  0
  9 10  1  0
 10 11  1  0
 10 12  1  0
M  END
$$$$
