CypD-x0700-pandda-model
     RDKit          3D

 14 14  0  0  0  0  0  0  0  0999 V2000
   -2.7685   -1.9461    2.1626 C   0  0  0  0  0  0  0  0  0  0  0  0
   -2.7304   -0.4882    0.2265 N   0  0  0  0  0  0  0  0  0  0  0  0
    0.5905    4.3065   -3.0125 O   0  0  0  0  0  0  0  0  0  0  0  0
   -0.3115    3.4069   -3.7049 S   0  0  0  0  0  0  0  0  0  0  0  0
   -2.3030   -0.5966    1.6318 C   0  0  0  0  0  0  0  0  0  0  0  0
    0.1238    2.7293   -4.9083 O   0  0  0  0  0  0  0  0  0  0  0  0
   -2.0984    0.3831   -0.6632 C   0  0  0  0  0  0  0  0  0  0  0  0
   -1.7121    1.6599   -0.2737 C   0  0  0  0  0  0  0  0  0  0  0  0
   -1.1531    2.5455   -1.1819 C   0  0  0  0  0  0  0  0  0  0  0  0
   -0.9551    2.2034   -2.5171 C   0  0  0  0  0  0  0  0  0  0  0  0
   -1.3030    0.9155   -2.9059 C   0  0  0  0  0  0  0  0  0  0  0  0
   -1.8568    0.0413   -1.9942 C   0  0  0  0  0  0  0  0  0  0  0  0
   -1.7401    4.3906   -4.0964 C   0  0  0  0  0  0  0  0  0  0  0  0
   -2.1691   -1.1652   -2.4058 F   0  0  0  0  0  0  0  0  0  0  0  0
  1  5  1  0
  2  5  1  0
  2  7  1  0
  3  4  2  0
  4  6  2  0
  4 10  1  0
  4 13  1  0
  7  8  2  0
  7 12  1  0
  8  9  1  0
  9 10  2  0
 10 11  1  0
 11 12  2  0
 12 14  1  0
M  END
$$$$
