CypD-x0440-pandda-model
     RDKit          3D

 17 18  0  0  0  0  0  0  0  0999 V2000
   -2.5938   -0.7764    1.9098 C   0  0  0  0  0  0  0  0  0  0  0  0
   -3.3451   -1.7659    2.5184 N   0  0  0  0  0  0  0  0  0  0  0  0
   -0.3354    2.7348   -1.4839 O   0  0  0  0  0  0  0  0  0  0  0  0
    0.0789    2.4176   -0.1206 S   0  0  0  0  0  0  0  0  0  0  0  0
   -1.5721   -0.1440    2.6016 C   0  0  0  0  0  0  0  0  0  0  0  0
    1.5229    1.5724   -0.1750 N   0  0  0  0  0  0  0  0  0  0  0  0
    0.2631    3.5517    0.7608 O   0  0  0  0  0  0  0  0  0  0  0  0
   -0.8084    0.8349    1.9950 C   0  0  0  0  0  0  0  0  0  0  0  0
    2.7828   -0.2010   -0.6920 N   0  0  0  0  0  0  0  0  0  0  0  0
   -1.0230    1.2082    0.6719 C   0  0  0  0  0  0  0  0  0  0  0  0
   -2.0601    0.5777   -0.0099 C   0  0  0  0  0  0  0  0  0  0  0  0
   -2.8306   -0.3990    0.5968 C   0  0  0  0  0  0  0  0  0  0  0  0
    1.6182    0.5068   -0.8737 C   0  0  0  0  0  0  0  0  0  0  0  0
    0.7037   -0.0907   -1.8155 C   0  0  0  0  0  0  0  0  0  0  0  0
    0.9692   -1.2638   -2.4467 C   0  0  0  0  0  0  0  0  0  0  0  0
    2.1895   -1.9377   -2.1917 C   0  0  0  0  0  0  0  0  0  0  0  0
    3.0734   -1.3976   -1.3202 C   0  0  0  0  0  0  0  0  0  0  0  0
  1  2  1  0
  1  5  2  0
  1 12  1  0
  3  4  2  0
  4  6  1  0
  4  7  2  0
  4 10  1  0
  5  8  1  0
  6 13  2  0
  8 10  2  0
  9 13  1  0
  9 17  1  0
 10 11  1  0
 11 12  2  0
 13 14  1  0
 14 15  2  0
 15 16  1  0
 16 17  2  0
M  END
$$$$
