CypD-x0789-pandda-model
     RDKit          3D

 15 16  0  0  1  0  0  0  0  0999 V2000
   -3.2700   -3.4200    3.0550 C   0  0  0  0  0  0  0  0  0  0  0  0
   -2.2250   -2.4310    2.6570 N   0  0  0  0  0  0  0  0  0  0  0  0
   -2.9260   -2.2340   -2.0320 O   0  0  0  0  0  0  0  0  0  0  0  0
   -2.4970   -1.6130    1.4360 C   0  0  0  0  0  0  0  0  0  0  0  0
   -0.5940   -3.4980    3.8710 N   0  0  0  0  0  0  0  0  0  0  0  0
   -3.1460   -2.4210    0.2940 C   0  0  2  0  0  0  0  0  0  0  0  0
    1.2220   -2.3940    4.9390 N   0  0  0  0  0  0  0  0  0  0  0  0
   -2.2490   -3.5300   -0.2510 C   0  0  0  0  0  0  0  0  0  0  0  0
   -1.8630   -3.0330   -1.6330 C   0  0  0  0  0  0  0  0  0  0  0  0
   -3.4210   -1.5430   -0.9270 C   0  0  0  0  0  0  0  0  0  0  0  0
   -1.0490   -2.3470    3.3970 C   0  0  0  0  0  0  0  0  0  0  0  0
    0.5030   -3.4520    4.6040 C   0  0  0  0  0  0  0  0  0  0  0  0
    0.7680   -1.2480    4.4630 C   0  0  0  0  0  0  0  0  0  0  0  0
   -0.3520   -1.1680    3.6770 C   0  0  0  0  0  0  0  0  0  0  0  0
   -0.8460    0.4180    3.0920 Cl  0  0  0  0  0  0  0  0  0  0  0  0
  1  2  1  0
  2  4  1  0
  2 11  1  0
  3  9  1  0
  3 10  1  0
  6  4  1  1
  5 11  2  0
  5 12  1  0
  6  8  1  0
  6 10  1  0
  7 12  2  0
  7 13  1  0
  8  9  1  0
 11 14  1  0
 13 14  2  0
 14 15  1  0
M  END
$$$$
