CypD-x0296-pandda-model
     RDKit          3D

 13 14  0  0  1  0  0  0  0  0999 V2000
   -3.3733   -3.5307   -3.2355 C   0  0  2  0  0  0  0  0  0  0  0  0
   -3.2242   -2.7092   -0.4852 N   0  0  1  0  0  0  0  0  0  0  0  0
   -2.5598   -4.1152   -4.1915 O   0  0  0  0  0  0  0  0  0  0  0  0
   -0.9161   -0.2715    3.2961 S   0  0  0  0  0  0  0  0  0  0  0  0
   -2.7138   -2.2137   -2.8061 C   0  0  0  0  0  0  0  0  0  0  0  0
   -3.3515   -1.6642   -1.5344 C   0  0  0  0  0  0  0  0  0  0  0  0
   -3.5121   -2.2086    0.8867 C   0  0  0  0  0  0  0  0  0  0  0  0
   -2.4668   -1.1686    1.3428 C   0  0  2  0  0  0  0  0  0  0  0  0
   -1.0016   -1.5103    0.9876 C   0  0  0  0  0  0  0  0  0  0  0  0
   -0.0898   -0.5228    1.7180 C   0  0  0  0  0  0  0  0  0  0  0  0
   -2.5216   -0.9791    2.8627 C   0  0  0  0  0  0  0  0  0  0  0  0
   -4.1166   -3.8458   -0.8322 C   0  0  0  0  0  0  0  0  0  0  0  0
   -3.5433   -4.5236   -2.0779 C   0  0  0  0  0  0  0  0  0  0  0  0
  1  3  1  6
  1  5  1  0
  1 13  1  0
  2  6  1  0
  2  7  1  1
  2 12  1  0
  4 10  1  0
  4 11  1  0
  5  6  1  0
  8  7  1  1
  8  9  1  0
  8 11  1  0
  9 10  1  0
 12 13  1  0
M  CHG  1   2   1
M  END
$$$$
