CypD-x0042-pandda-model
     RDKit          3D

 11 11  0  0  0  0  0  0  0  0999 V2000
    0.5871    2.2630    1.6000 C   0  0  0  0  0  0  0  0  0  0  0  0
    1.4935    1.6532    2.3911 N   0  0  0  0  0  0  0  0  0  0  0  0
    0.0241    3.2414    2.0543 O   0  0  0  0  0  0  0  0  0  0  0  0
    0.3023    1.7890    0.2684 C   0  0  0  0  0  0  0  0  0  0  0  0
    0.5821    0.7442   -1.7058 N   0  0  0  0  0  0  0  0  0  0  0  0
   -0.7950   -0.7885   -3.6785 O   0  0  0  0  0  0  0  0  0  0  0  0
    1.1225    1.0115   -0.5563 C   0  0  0  0  0  0  0  0  0  0  0  0
   -0.6231    1.3476   -1.6670 N   0  0  0  0  0  0  0  0  0  0  0  0
   -1.5661    1.2918   -2.8006 C   0  0  0  0  0  0  0  0  0  0  0  0
   -1.9223   -0.1522   -3.1693 C   0  0  0  0  0  0  0  0  0  0  0  0
   -0.8071    1.9809   -0.4990 C   0  0  0  0  0  0  0  0  0  0  0  0
  1  2  1  0
  1  3  2  0
  1  4  1  0
  4  7  1  0
  4 11  2  0
  5  7  2  0
  5  8  1  0
  6 10  1  0
  8  9  1  0
  8 11  1  0
  9 10  1  0
M  END
$$$$
