CypD-x0074-pandda-model
     RDKit          3D

 13 13  0  0  0  0  0  0  0  0999 V2000
    1.0876    1.6572    1.2173 C   0  0  0  0  0  0  0  0  0  0  0  0
   -0.3421    0.1698    2.3877 O   0  0  0  0  0  0  0  0  0  0  0  0
    0.2443    0.3936    1.1297 C   0  0  0  0  0  0  0  0  0  0  0  0
   -3.5293   -4.7926    5.6506 O   0  0  0  0  0  0  0  0  0  0  0  0
   -1.1002   -0.9415    2.5087 C   0  0  0  0  0  0  0  0  0  0  0  0
   -1.9505   -5.6892    4.5390 O   0  0  0  0  0  0  0  0  0  0  0  0
   -0.6103   -2.2054    2.2039 C   0  0  0  0  0  0  0  0  0  0  0  0
   -1.3988   -3.3217    2.4243 C   0  0  0  0  0  0  0  0  0  0  0  0
   -2.6790   -3.1860    2.9389 C   0  0  0  0  0  0  0  0  0  0  0  0
   -3.5010   -4.4307    3.2694 C   0  0  0  0  0  0  0  0  0  0  0  0
   -3.0108   -5.0547    4.5575 C   0  0  0  0  0  0  0  0  0  0  0  0
   -3.1823   -1.9187    3.1870 C   0  0  0  0  0  0  0  0  0  0  0  0
   -2.3943   -0.8016    2.9757 C   0  0  0  0  0  0  0  0  0  0  0  0
  1  3  1  0
  2  3  1  0
  2  5  1  0
  4 11  1  0
  5  7  2  0
  5 13  1  0
  6 11  2  0
  7  8  1  0
  8  9  2  0
  9 10  1  0
  9 12  1  0
 10 11  1  0
 12 13  2  0
M  CHG  1   4  -1
M  END
$$$$
