CypD-x0767-pandda-model
     RDKit          3D

 16 17  0  0  0  0  0  0  0  0999 V2000
   -4.8576   -5.4784   -1.8571 C   0  0  0  0  0  0  0  0  0  0  0  0
   -2.7373   -2.9259   -0.9280 N   0  0  0  0  0  0  0  0  0  0  0  0
   -3.1678   -2.1092   -3.2241 O   0  0  0  0  0  0  0  0  0  0  0  0
   -3.1383   -3.3341   -2.4375 S   0  0  0  0  0  0  0  0  0  0  0  0
   -4.8040   -4.0047   -2.2933 C   0  0  0  0  0  0  0  0  0  0  0  0
   -2.2602   -4.3805   -2.9378 O   0  0  0  0  0  0  0  0  0  0  0  0
   -3.3083   -1.7557   -0.3264 C   0  0  0  0  0  0  0  0  0  0  0  0
   -0.1357    0.1911    3.8387 O   0  0  0  0  0  0  0  0  0  0  0  0
   -2.4648   -1.2911    0.8452 C   0  0  0  0  0  0  0  0  0  0  0  0
    0.5933    0.5367    1.7082 O   0  0  0  0  0  0  0  0  0  0  0  0
   -2.8920   -1.5139    2.1501 C   0  0  0  0  0  0  0  0  0  0  0  0
   -2.1436   -1.0670    3.2260 C   0  0  0  0  0  0  0  0  0  0  0  0
   -0.9821   -0.3689    2.9689 C   0  0  0  0  0  0  0  0  0  0  0  0
    0.8444    0.8810    3.0669 C   0  0  0  0  0  0  0  0  0  0  0  0
   -0.5522   -0.1555    1.6930 C   0  0  0  0  0  0  0  0  0  0  0  0
   -1.2731   -0.6162    0.6089 C   0  0  0  0  0  0  0  0  0  0  0  0
  1  5  1  0
  2  4  1  0
  2  7  1  0
  3  4  2  0
  4  5  1  0
  4  6  2  0
  7  9  1  0
  8 13  1  0
  8 14  1  0
  9 11  2  0
  9 16  1  0
 10 14  1  0
 10 15  1  0
 11 12  1  0
 12 13  2  0
 13 15  1  0
 15 16  2  0
M  CHG  1   2  -1
M  END
$$$$
