CypD-x0645-pandda-model
     RDKit          3D

 16 17  0  0  0  0  0  0  0  0999 V2000
    1.4481    0.4427    2.5176 C   0  0  0  0  0  0  0  0  0  0  0  0
   -0.0430    0.5190    2.4414 N   0  0  0  0  0  0  0  0  0  0  0  0
   -0.4723    1.4715    1.3752 C   0  0  0  0  0  0  0  0  0  0  0  0
   -4.2336   -4.4607    1.7734 N   0  0  0  0  0  0  0  0  0  0  0  0
   -0.7796   -0.6721    2.4631 C   0  0  0  0  0  0  0  0  0  0  0  0
   -3.8675   -4.1128    0.4237 N   0  0  0  0  0  0  0  0  0  0  0  0
   -2.0848   -0.6599    2.9399 C   0  0  0  0  0  0  0  0  0  0  0  0
   -3.5123   -3.0162   -1.4261 N   0  0  0  0  0  0  0  0  0  0  0  0
   -2.8436   -1.8167    3.0066 C   0  0  0  0  0  0  0  0  0  0  0  0
   -3.3594   -4.3126   -1.6886 N   0  0  0  0  0  0  0  0  0  0  0  0
   -2.3102   -3.0280    2.5935 C   0  0  0  0  0  0  0  0  0  0  0  0
   -3.1002   -4.3272    2.7206 C   0  0  0  0  0  0  0  0  0  0  0  0
   -3.8208   -2.9233   -0.1680 C   0  0  0  0  0  0  0  0  0  0  0  0
   -3.5878   -4.9425   -0.5769 C   0  0  0  0  0  0  0  0  0  0  0  0
   -1.0232   -3.0466    2.0772 C   0  0  0  0  0  0  0  0  0  0  0  0
   -0.2763   -1.8857    2.0038 C   0  0  0  0  0  0  0  0  0  0  0  0
  1  2  1  0
  2  3  1  0
  2  5  1  0
  4  6  1  0
  4 12  1  0
  5  7  2  0
  5 16  1  0
  6 13  1  0
  6 14  1  0
  7  9  1  0
  8 10  1  0
  8 13  2  0
  9 11  2  0
 10 14  2  0
 11 12  1  0
 11 15  1  0
 15 16  2  0
M  END
$$$$
