CypD-x0074-pandda-model
     RDKit          3D

 13 13  0  0  0  0  0  0  0  0999 V2000
    0.8235    2.5077    2.1714 C   0  0  0  0  0  0  0  0  0  0  0  0
   -0.0835    0.3210    2.0221 O   0  0  0  0  0  0  0  0  0  0  0  0
   -0.3028    1.5813    2.6122 C   0  0  0  0  0  0  0  0  0  0  0  0
   -3.3801   -4.5818    5.4928 O   0  0  0  0  0  0  0  0  0  0  0  0
   -0.9276   -0.7114    2.2524 C   0  0  0  0  0  0  0  0  0  0  0  0
   -1.7636   -5.4104    4.3749 O   0  0  0  0  0  0  0  0  0  0  0  0
   -2.1958   -0.5559    2.8002 C   0  0  0  0  0  0  0  0  0  0  0  0
   -2.9803   -1.6672    3.0552 C   0  0  0  0  0  0  0  0  0  0  0  0
   -2.5115   -2.9393    2.7726 C   0  0  0  0  0  0  0  0  0  0  0  0
   -3.3470   -4.1684    3.1256 C   0  0  0  0  0  0  0  0  0  0  0  0
   -2.8409   -4.8028    4.4020 C   0  0  0  0  0  0  0  0  0  0  0  0
   -1.2605   -3.0882    2.1938 C   0  0  0  0  0  0  0  0  0  0  0  0
   -0.4757   -1.9806    1.9279 C   0  0  0  0  0  0  0  0  0  0  0  0
  1  3  1  0
  2  3  1  0
  2  5  1  0
  4 11  1  0
  5  7  2  0
  5 13  1  0
  6 11  2  0
  7  8  1  0
  8  9  2  0
  9 10  1  0
  9 12  1  0
 10 11  1  0
 12 13  2  0
M  CHG  1   4  -1
M  END
$$$$
