CypD-x0448-pandda-model
     RDKit          3D

 12 13  0  0  0  0  0  0  0  0999 V2000
   -3.6744   -1.9291   -1.0188 C   0  0  0  0  0  0  0  0  0  0  0  0
    3.5560   -4.1156   -1.7117 N   0  0  0  0  0  0  0  0  0  0  0  0
   -2.9188   -1.0320   -1.8059 O   0  0  0  0  0  0  0  0  0  0  0  0
    2.7793   -1.7577   -2.6925 S   0  0  0  0  0  0  0  0  0  0  0  0
   -1.5837   -1.1891   -1.9812 C   0  0  0  0  0  0  0  0  0  0  0  0
    1.2968   -3.4786   -1.4855 N   0  0  0  0  0  0  0  0  0  0  0  0
   -0.9338   -0.1592   -2.6613 C   0  0  0  0  0  0  0  0  0  0  0  0
    0.4226   -0.2267   -2.9204 C   0  0  0  0  0  0  0  0  0  0  0  0
    1.0902   -1.3557   -2.4895 C   0  0  0  0  0  0  0  0  0  0  0  0
    2.5027   -3.2836   -1.8653 C   0  0  0  0  0  0  0  0  0  0  0  0
    0.4859   -2.3990   -1.8121 C   0  0  0  0  0  0  0  0  0  0  0  0
   -0.8723   -2.3038   -1.5392 C   0  0  0  0  0  0  0  0  0  0  0  0
  1  3  1  0
  2 10  1  0
  3  5  1  0
  4  9  1  0
  4 10  1  0
  5  7  2  0
  5 12  1  0
  6 10  2  0
  6 11  1  0
  7  8  1  0
  8  9  2  0
  9 11  1  0
 11 12  2  0
M  END
$$$$
