CypD-x0095-pandda-model
     RDKit          3D

 15 15  0  0  0  0  0  0  0  0999 V2000
   -2.1251   -2.7825    2.2602 C   0  0  0  0  0  0  0  0  0  0  0  0
   -2.3233   -0.2581    0.3314 N   0  0  0  0  0  0  0  0  0  0  0  0
   -3.1595   -2.0210   -0.8391 O   0  0  0  0  0  0  0  0  0  0  0  0
   -0.0660    3.6144   -3.7306 S   0  0  0  0  0  0  0  0  0  0  0  0
   -3.3246   -2.1935    1.5024 C   0  0  0  0  0  0  0  0  0  0  0  0
   -1.3171    4.6548   -4.0414 N   0  0  0  0  0  0  0  0  0  0  0  0
    0.2338    2.9864   -5.0019 O   0  0  0  0  0  0  0  0  0  0  0  0
   -2.9301   -1.4816    0.2178 C   0  0  0  0  0  0  0  0  0  0  0  0
    0.9177    4.4552   -3.0937 O   0  0  0  0  0  0  0  0  0  0  0  0
   -1.7663    0.5981   -0.6331 C   0  0  0  0  0  0  0  0  0  0  0  0
   -1.4483    1.9007   -0.2702 C   0  0  0  0  0  0  0  0  0  0  0  0
   -0.9295    2.7950   -1.1924 C   0  0  0  0  0  0  0  0  0  0  0  0
   -0.6994    2.4233   -2.5122 C   0  0  0  0  0  0  0  0  0  0  0  0
   -0.9810    1.1085   -2.8579 C   0  0  0  0  0  0  0  0  0  0  0  0
   -1.5065    0.2139   -1.9446 C   0  0  0  0  0  0  0  0  0  0  0  0
  1  5  1  0
  2  8  1  0
  2 10  1  0
  3  8  2  0
  4  6  1  0
  4  7  2  0
  4  9  2  0
  4 13  1  0
  5  8  1  0
 10 11  2  0
 10 15  1  0
 11 12  1  0
 12 13  2  0
 13 14  1  0
 14 15  2  0
M  END
$$$$
