CypD-x0767-pandda-model
     RDKit          3D

 16 17  0  0  0  0  0  0  0  0999 V2000
   -5.0280   -5.7320   -2.4860 C   0  0  0  0  0  0  0  0  0  0  0  0
   -3.2540   -3.0790   -1.9070 N   0  0  0  0  0  0  0  0  0  0  0  0
   -4.1220   -2.1200   -4.0530 O   0  0  0  0  0  0  0  0  0  0  0  0
   -3.7890   -3.3910   -3.4590 S   0  0  0  0  0  0  0  0  0  0  0  0
   -5.2470   -4.4340   -3.2840 C   0  0  0  0  0  0  0  0  0  0  0  0
   -2.7160   -4.1390   -4.0850 O   0  0  0  0  0  0  0  0  0  0  0  0
   -4.1580   -2.2580   -1.1240 C   0  0  0  0  0  0  0  0  0  0  0  0
   -1.3330    0.0370    3.1170 O   0  0  0  0  0  0  0  0  0  0  0  0
   -3.3760   -1.6920    0.0460 C   0  0  0  0  0  0  0  0  0  0  0  0
   -1.3630    1.1690    1.1330 O   0  0  0  0  0  0  0  0  0  0  0  0
   -3.3500   -2.3750    1.2630 C   0  0  0  0  0  0  0  0  0  0  0  0
   -2.6730   -1.8600    2.3610 C   0  0  0  0  0  0  0  0  0  0  0  0
   -2.0290   -0.6500    2.2080 C   0  0  0  0  0  0  0  0  0  0  0  0
   -0.9270    1.2490    2.4910 C   0  0  0  0  0  0  0  0  0  0  0  0
   -2.0440    0.0220    1.0210 C   0  0  0  0  0  0  0  0  0  0  0  0
   -2.7010   -0.4810   -0.0840 C   0  0  0  0  0  0  0  0  0  0  0  0
  1  5  1  0
  2  4  1  0
  2  7  1  0
  3  4  2  0
  4  5  1  0
  4  6  2  0
  7  9  1  0
  8 13  1  0
  8 14  1  0
  9 11  2  0
  9 16  1  0
 10 14  1  0
 10 15  1  0
 11 12  1  0
 12 13  2  0
 13 15  1  0
 15 16  2  0
M  END
$$$$
