CypD-x0527-pandda-model
     RDKit          3D

 12 12  0  0  0  0  0  0  0  0999 V2000
   -1.6738   -0.2473    2.7604 C   0  0  0  0  0  0  0  0  0  0  0  0
   -1.1973    0.4845    1.5828 N   0  0  0  0  0  0  0  0  0  0  0  0
   -0.4299    0.0436   -2.5707 O   0  0  0  0  0  0  0  0  0  0  0  0
   -1.3754    0.1169    0.3121 C   0  0  0  0  0  0  0  0  0  0  0  0
   -0.9796    2.1652   -2.6135 N   0  0  0  0  0  0  0  0  0  0  0  0
   -0.7563    1.0267   -0.4875 C   0  0  0  0  0  0  0  0  0  0  0  0
   -0.4675    1.6138    1.6684 N   0  0  0  0  0  0  0  0  0  0  0  0
   -0.6976    1.0386   -1.9271 C   0  0  0  0  0  0  0  0  0  0  0  0
   -0.1938    1.9316    0.4273 C   0  0  0  0  0  0  0  0  0  0  0  0
    0.6931    3.1102   -0.0124 C   0  0  0  0  0  0  0  0  0  0  0  0
    1.9664    2.7829    0.1690 F   0  0  0  0  0  0  0  0  0  0  0  0
    0.5149    4.1743    0.7705 F   0  0  0  0  0  0  0  0  0  0  0  0
  1  2  1  0
  2  4  1  0
  2  7  1  0
  3  8  2  0
  4  6  2  0
  5  8  1  0
  6  8  1  0
  6  9  1  0
  7  9  2  0
  9 10  1  0
 10 11  1  0
 10 12  1  0
M  END
$$$$
