CypD-x0879-pandda-model
     RDKit          3D

 13 13  0  0  0  0  0  0  0  0999 V2000
    1.8210   -2.0210   -1.9550 C   0  0  0  0  0  0  0  0  0  0  0  0
    0.8390   -3.8810   -3.2610 N   0  0  0  0  0  0  0  0  0  0  0  0
   -0.4070   -4.6020   -4.9900 O   0  0  0  0  0  0  0  0  0  0  0  0
    0.9330   -3.2630   -1.9080 C   0  0  0  0  0  0  0  0  0  0  0  0
   -5.0320   -3.7300   -2.7780 N   0  0  0  0  0  0  0  0  0  0  0  0
    2.0590   -4.6290   -3.6910 C   0  0  0  0  0  0  0  0  0  0  0  0
   -0.3300   -3.9010   -3.9930 C   0  0  0  0  0  0  0  0  0  0  0  0
   -1.5010   -3.1280   -3.6310 C   0  0  0  0  0  0  0  0  0  0  0  0
   -1.5000   -1.7330   -3.6490 C   0  0  0  0  0  0  0  0  0  0  0  0
   -2.6480   -1.0140   -3.3660 C   0  0  0  0  0  0  0  0  0  0  0  0
   -3.8200   -1.6830   -3.0690 C   0  0  0  0  0  0  0  0  0  0  0  0
   -3.8520   -3.0680   -3.0460 C   0  0  0  0  0  0  0  0  0  0  0  0
   -2.6900   -3.7740   -3.3070 C   0  0  0  0  0  0  0  0  0  0  0  0
  1  4  1  0
  2  4  1  0
  2  6  1  0
  2  7  1  0
  3  7  2  0
  5 12  1  0
  7  8  1  0
  8  9  2  0
  8 13  1  0
  9 10  1  0
 10 11  2  0
 11 12  1  0
 12 13  2  0
M  END
$$$$
