CypD-x0964-pandda-model
     RDKit          3D

 12 13  0  0  0  0  0  0  0  0999 V2000
  -28.2782   11.7139  -24.5155 C   0  0  0  0  0  0  0  0  0  0  0  0
  -29.5510   11.9958  -24.9551 N   0  0  0  0  0  0  0  0  0  0  0  0
  -24.0536    9.9622  -22.3254 O   0  0  0  0  0  0  0  0  0  0  0  0
  -28.0292   10.6766  -23.6299 C   0  0  0  0  0  0  0  0  0  0  0  0
  -23.2150   11.5174  -23.5236 N   0  0  0  0  0  0  0  0  0  0  0  0
  -26.7445   10.4182  -23.1926 C   0  0  0  0  0  0  0  0  0  0  0  0
  -22.7961    9.8988  -22.0844 N   0  0  0  0  0  0  0  0  0  0  0  0
  -25.6562   11.1841  -23.6262 C   0  0  0  0  0  0  0  0  0  0  0  0
  -25.9271   12.2231  -24.5187 C   0  0  0  0  0  0  0  0  0  0  0  0
  -27.2112   12.4807  -24.9560 C   0  0  0  0  0  0  0  0  0  0  0  0
  -24.3068   10.9184  -23.1803 C   0  0  0  0  0  0  0  0  0  0  0  0
  -22.3133   10.8357  -22.8043 C   0  0  0  0  0  0  0  0  0  0  0  0
  1  2  1  0
  1  4  2  0
  1 10  1  0
  3  7  1  0
  3 11  1  0
  4  6  1  0
  5 11  2  0
  5 12  1  0
  6  8  2  0
  7 12  2  0
  8  9  1  0
  8 11  1  0
  9 10  2  0
M  END
$$$$
