CypD-x0698-pandda-model
     RDKit          3D

 15 16  0  0  0  0  0  0  0  0999 V2000
    1.1447    0.4081   -2.7921 C   0  0  0  0  0  0  0  0  0  0  0  0
   -2.7094   -1.7403   -0.5776 N   0  0  0  0  0  0  0  0  0  0  0  0
    0.1176   -0.1373   -1.9857 O   0  0  0  0  0  0  0  0  0  0  0  0
    0.0961    0.1522   -0.6556 C   0  0  0  0  0  0  0  0  0  0  0  0
   -4.3454   -4.0045    0.3091 N   0  0  0  0  0  0  0  0  0  0  0  0
    1.2516    0.5027    0.0407 C   0  0  0  0  0  0  0  0  0  0  0  0
    1.1865    0.8452    1.3798 C   0  0  0  0  0  0  0  0  0  0  0  0
   -0.0289    0.8488    2.0342 C   0  0  0  0  0  0  0  0  0  0  0  0
   -1.1770    0.4946    1.3548 C   0  0  0  0  0  0  0  0  0  0  0  0
   -1.1248    0.1205    0.0177 C   0  0  0  0  0  0  0  0  0  0  0  0
   -2.4195   -0.2879   -0.6706 C   0  0  0  0  0  0  0  0  0  0  0  0
   -4.0361   -2.0079   -1.1741 C   0  0  0  0  0  0  0  0  0  0  0  0
   -4.4215   -3.4972   -1.0947 C   0  0  0  0  0  0  0  0  0  0  0  0
   -3.0268   -3.7152    0.9454 C   0  0  0  0  0  0  0  0  0  0  0  0
   -2.6583   -2.2260    0.8244 C   0  0  0  0  0  0  0  0  0  0  0  0
  1  3  1  0
  2 11  1  0
  2 12  1  0
  2 15  1  0
  3  4  1  0
  4  6  2  0
  4 10  1  0
  5 13  1  0
  5 14  1  0
  6  7  1  0
  7  8  2  0
  8  9  1  0
  9 10  2  0
 10 11  1  0
 12 13  1  0
 14 15  1  0
M  CHG  1   5   1
M  END
$$$$
