CypD-x0354-pandda-model
     RDKit          3D

 14 15  0  0  0  0  0  0  0  0999 V2000
   -4.8528   23.4834   21.2691 C   0  0  0  0  0  0  0  0  0  0  0  0
   -6.7758   23.8342   19.1388 N   0  0  0  0  0  0  0  0  0  0  0  0
   -5.2795   23.3273   22.5864 O   0  0  0  0  0  0  0  0  0  0  0  0
   -5.3885   22.3284   20.4367 C   0  0  0  0  0  0  0  0  0  0  0  0
   -7.8464   26.2865   18.1591 O   0  0  0  0  0  0  0  0  0  0  0  0
   -4.9310   21.0441   20.6895 C   0  0  0  0  0  0  0  0  0  0  0  0
   -5.4059   19.9708   19.9573 C   0  0  0  0  0  0  0  0  0  0  0  0
   -6.3368   20.1791   18.9573 C   0  0  0  0  0  0  0  0  0  0  0  0
   -6.7788   21.4607   18.6813 C   0  0  0  0  0  0  0  0  0  0  0  0
   -6.3169   22.5482   19.4166 C   0  0  0  0  0  0  0  0  0  0  0  0
   -6.1412   24.5587   17.9993 C   0  0  0  0  0  0  0  0  0  0  0  0
   -6.4618   26.0643   18.0940 C   0  0  0  0  0  0  0  0  0  0  0  0
   -8.4871   25.6340   19.2219 C   0  0  0  0  0  0  0  0  0  0  0  0
   -8.2424   24.1144   19.1747 C   0  0  0  0  0  0  0  0  0  0  0  0
  1  3  1  0
  1  4  1  0
  2 10  1  0
  2 11  1  0
  2 14  1  0
  4  6  2  0
  4 10  1  0
  5 12  1  0
  5 13  1  0
  6  7  1  0
  7  8  2  0
  8  9  1  0
  9 10  2  0
 11 12  1  0
 13 14  1  0
M  END
$$$$
