CypD-x0138-pandda-model
     RDKit          3D

 17 18  0  0  0  0  0  0  0  0999 V2000
    0.6510   24.5720   24.5230 C   0  0  0  0  0  0  0  0  0  0  0  0
   -0.6750   24.3640   23.8710 N   0  0  0  0  0  0  0  0  0  0  0  0
   -4.9610   22.0300   22.8700 O   0  0  0  0  0  0  0  0  0  0  0  0
   -0.5220   23.6620   22.5520 C   0  0  0  0  0  0  0  0  0  0  0  0
   -3.0090   23.1450   22.7220 N   0  0  0  0  0  0  0  0  0  0  0  0
   -1.8810   23.5800   21.8240 C   0  0  0  0  0  0  0  0  0  0  0  0
   -4.5530   23.0540   20.9290 N   0  0  0  0  0  0  0  0  0  0  0  0
   -2.5720   22.6380   24.0700 C   0  0  0  0  0  0  0  0  0  0  0  0
   -1.5770   23.5760   24.7920 C   0  0  0  0  0  0  0  0  0  0  0  0
   -4.2020   22.7090   22.2000 C   0  0  0  0  0  0  0  0  0  0  0  0
   -5.4650   22.4200   20.0790 C   0  0  0  0  0  0  0  0  0  0  0  0
   -5.5270   21.0290   20.0000 C   0  0  0  0  0  0  0  0  0  0  0  0
   -6.4220   20.4100   19.1430 C   0  0  0  0  0  0  0  0  0  0  0  0
   -7.2560   21.2030   18.3780 C   0  0  0  0  0  0  0  0  0  0  0  0
   -7.2140   22.5830   18.4240 C   0  0  0  0  0  0  0  0  0  0  0  0
   -6.3100   23.1880   19.2790 C   0  0  0  0  0  0  0  0  0  0  0  0
   -8.1260   20.6290   17.5920 F   0  0  0  0  0  0  0  0  0  0  0  0
  1  2  1  0
  2  4  1  0
  2  9  1  0
  3 10  2  0
  4  6  1  0
  5  6  1  0
  5  8  1  0
  5 10  1  0
  7 10  1  0
  7 11  1  0
  8  9  1  0
 11 12  2  0
 11 16  1  0
 12 13  1  0
 13 14  2  0
 14 15  1  0
 14 17  1  0
 15 16  2  0
M  CHG  1   2   1
M  END
$$$$
