CypD-x0429-pandda-model
     RDKit          3D

 13 13  0  0  0  0  0  0  0  0999 V2000
   -7.3160   23.6170   18.3780 C   0  0  0  0  0  0  0  0  0  0  0  0
   -5.7230   26.4650   22.0420 N   0  0  0  0  0  0  0  0  0  0  0  0
   -7.3580   24.6290   21.8060 O   0  0  0  0  0  0  0  0  0  0  0  0
   -5.9300   24.8320   21.8630 S   0  0  0  0  0  0  0  0  0  0  0  0
   -6.4500   22.5760   19.0750 C   0  0  0  0  0  0  0  0  0  0  0  0
   -5.2660   24.2450   22.9980 O   0  0  0  0  0  0  0  0  0  0  0  0
   -6.6980   21.2390   18.8080 C   0  0  0  0  0  0  0  0  0  0  0  0
   -5.9310   20.2740   19.4260 C   0  0  0  0  0  0  0  0  0  0  0  0
   -4.9190   20.5890   20.3080 C   0  0  0  0  0  0  0  0  0  0  0  0
   -4.6680   21.9240   20.5700 C   0  0  0  0  0  0  0  0  0  0  0  0
   -5.4270   22.9180   19.9610 C   0  0  0  0  0  0  0  0  0  0  0  0
   -5.1260   24.3700   20.3230 C   0  0  0  0  0  0  0  0  0  0  0  0
   -6.1740   19.0210   19.1680 F   0  0  0  0  0  0  0  0  0  0  0  0
  1  5  1  0
  2  4  1  0
  3  4  2  0
  4  6  2  0
  4 12  1  0
  5  7  2  0
  5 11  1  0
  7  8  1  0
  8  9  2  0
  8 13  1  0
  9 10  1  0
 10 11  2  0
 11 12  1  0
M  END
$$$$
