CypD-x0057-pandda-model
     RDKit          3D

 13 13  0  0  0  0  0  0  0  0999 V2000
   -2.5150   21.7580   24.2390 C   0  0  0  0  0  0  0  0  0  0  0  0
   -3.6220   21.0700   24.9150 N   0  0  0  0  0  0  0  0  0  0  0  0
   -5.8540   21.4950   23.1360 O   0  0  0  0  0  0  0  0  0  0  0  0
   -4.2210   20.0330   24.0380 C   0  0  0  0  0  0  0  0  0  0  0  0
   -4.9900   20.0440   21.6520 N   0  0  0  0  0  0  0  0  0  0  0  0
   -5.0820   20.5910   22.8940 C   0  0  0  0  0  0  0  0  0  0  0  0
   -6.1950   19.2650   19.8890 N   0  0  0  0  0  0  0  0  0  0  0  0
   -5.7530   20.3260   20.5410 C   0  0  0  0  0  0  0  0  0  0  0  0
   -6.0330   21.6370   20.1560 C   0  0  0  0  0  0  0  0  0  0  0  0
   -6.8390   21.8860   19.0660 C   0  0  0  0  0  0  0  0  0  0  0  0
   -7.1810   23.2880   18.5940 C   0  0  0  0  0  0  0  0  0  0  0  0
   -7.3190   20.7760   18.4030 C   0  0  0  0  0  0  0  0  0  0  0  0
   -6.9660   19.5120   18.8420 C   0  0  0  0  0  0  0  0  0  0  0  0
  1  2  1  0
  2  4  1  0
  3  6  2  0
  4  6  1  0
  5  6  1  0
  5  8  1  0
  7  8  2  0
  7 13  1  0
  8  9  1  0
  9 10  2  0
 10 11  1  0
 10 12  1  0
 12 13  2  0
M  END
$$$$
