CypD-x0679-pandda-model
     RDKit          3D

 13 13  0  0  0  0  0  0  0  0999 V2000
   -5.7260   19.2970   20.4750 C   0  0  0  0  0  0  0  0  0  0  0  0
   -4.3050   25.4770   18.7000 N   0  0  0  0  0  0  0  0  0  0  0  0
   -5.6880   26.6570   17.1010 O   0  0  0  0  0  0  0  0  0  0  0  0
   -5.4460   25.3000   17.5140 S   0  0  0  0  0  0  0  0  0  0  0  0
   -6.0750   20.6840   19.9630 C   0  0  0  0  0  0  0  0  0  0  0  0
   -4.8300   24.3590   16.6140 O   0  0  0  0  0  0  0  0  0  0  0  0
   -6.7540   20.8200   18.7640 C   0  0  0  0  0  0  0  0  0  0  0  0
   -7.0350   22.0770   18.2500 C   0  0  0  0  0  0  0  0  0  0  0  0
   -6.6440   23.2240   18.9290 C   0  0  0  0  0  0  0  0  0  0  0  0
   -6.8960   24.6020   18.3270 C   0  0  0  0  0  0  0  0  0  0  0  0
   -5.9970   23.1030   20.1480 C   0  0  0  0  0  0  0  0  0  0  0  0
   -5.7360   21.8420   20.6470 C   0  0  0  0  0  0  0  0  0  0  0  0
   -5.1740   21.7600   21.8240 F   0  0  0  0  0  0  0  0  0  0  0  0
  1  5  1  0
  2  4  1  0
  3  4  2  0
  4  6  2  0
  4 10  1  0
  5  7  2  0
  5 12  1  0
  7  8  1  0
  8  9  2  0
  9 10  1  0
  9 11  1  0
 11 12  2  0
 12 13  1  0
M  END
$$$$
