CypD-x0703-pandda-model
     RDKit          3D

 15 16  0  0  1  0  0  0  0  0999 V2000
   -7.2540   25.4640   20.6290 C   0  0  0  0  0  0  0  0  0  0  0  0
   -6.1930   27.6920   16.6300 N   0  0  0  0  0  0  0  0  0  0  0  0
   -6.3080   27.5810   19.2340 S   0  0  0  0  0  0  0  0  0  0  0  0
   -5.9130   26.0280   20.1330 C   0  0  2  0  0  0  0  0  0  0  0  0
   -5.4130   25.7590   17.7330 N   0  0  0  0  0  0  0  0  0  0  0  0
   -5.9340   26.9540   17.6670 C   0  0  0  0  0  0  0  0  0  0  0  0
   -5.1390   25.1870   19.0790 C   0  0  2  0  0  0  0  0  0  0  0  0
   -5.4390   23.6890   19.1350 C   0  0  0  0  0  0  0  0  0  0  0  0
   -6.4450   23.0980   18.3820 C   0  0  0  0  0  0  0  0  0  0  0  0
   -6.6570   21.7340   18.4530 C   0  0  0  0  0  0  0  0  0  0  0  0
   -5.8800   20.9330   19.2760 C   0  0  0  0  0  0  0  0  0  0  0  0
   -6.1230   19.4290   19.2800 C   0  0  0  0  0  0  0  0  0  0  0  0
   -4.8900   21.5180   20.0570 C   0  0  0  0  0  0  0  0  0  0  0  0
   -4.0090   20.7020   20.9980 C   0  0  0  0  0  0  0  0  0  0  0  0
   -4.6790   22.8860   19.9760 C   0  0  0  0  0  0  0  0  0  0  0  0
  4  1  1  6
  2  6  1  0
  3  4  1  0
  3  6  1  0
  4  7  1  0
  5  6  2  0
  5  7  1  0
  7  8  1  6
  8  9  2  0
  8 15  1  0
  9 10  1  0
 10 11  2  0
 11 12  1  0
 11 13  1  0
 13 14  1  0
 13 15  2  0
M  CHG  1   5   1
M  END
$$$$
