CypD-x0515-pandda-model
     RDKit          3D

 14 14  0  0  0  0  0  0  0  0999 V2000
   -8.0599   24.4333   20.4047 C   0  0  0  0  0  0  0  0  0  0  0  0
   -7.1823   24.0631   19.2650 N   0  0  0  0  0  0  0  0  0  0  0  0
   -7.2187   26.1551   18.3761 O   0  0  0  0  0  0  0  0  0  0  0  0
   -6.7501   25.0404   18.3982 C   0  0  0  0  0  0  0  0  0  0  0  0
   -4.1251   22.9773   20.6146 O   0  0  0  0  0  0  0  0  0  0  0  0
   -5.6548   24.7122   17.4087 C   0  0  0  0  0  0  0  0  0  0  0  0
   -5.6985   22.5099   22.0065 O   0  0  0  0  0  0  0  0  0  0  0  0
   -6.9649   22.6933   19.0552 C   0  0  0  0  0  0  0  0  0  0  0  0
   -7.7316   22.0637   18.0878 C   0  0  0  0  0  0  0  0  0  0  0  0
   -7.6116   20.7134   17.8350 C   0  0  0  0  0  0  0  0  0  0  0  0
   -6.6890   19.9657   18.5427 C   0  0  0  0  0  0  0  0  0  0  0  0
   -5.9104   20.5782   19.5050 C   0  0  0  0  0  0  0  0  0  0  0  0
   -6.0412   21.9381   19.7871 C   0  0  0  0  0  0  0  0  0  0  0  0
   -5.2564   22.5253   20.8376 C   0  0  0  0  0  0  0  0  0  0  0  0
  1  2  1  0
  2  4  1  0
  2  8  1  0
  3  4  2  0
  4  6  1  0
  5 14  1  0
  7 14  2  0
  8  9  2  0
  8 13  1  0
  9 10  1  0
 10 11  2  0
 11 12  1  0
 12 13  2  0
 13 14  1  0
M  CHG  1   5  -1
M  END
$$$$
