CypD-x0417-pandda-model
     RDKit          3D

 13 13  0  0  0  0  0  0  0  0999 V2000
   -2.6110   22.2650   24.1240 C   0  0  0  0  0  0  0  0  0  0  0  0
   -4.3990   20.8240   21.2270 N   0  0  0  0  0  0  0  0  0  0  0  0
   -5.2520   22.0100   22.9490 O   0  0  0  0  0  0  0  0  0  0  0  0
   -3.1220   21.0540   23.3270 C   0  0  0  0  0  0  0  0  0  0  0  0
   -7.4210   23.3830   18.3230 N   0  0  0  0  0  0  0  0  0  0  0  0
   -4.3520   21.3480   22.4830 C   0  0  0  0  0  0  0  0  0  0  0  0
   -5.4000   20.9540   20.2520 C   0  0  0  0  0  0  0  0  0  0  0  0
   -5.9480   19.7760   19.7630 C   0  0  0  0  0  0  0  0  0  0  0  0
   -6.9440   19.7950   18.8100 C   0  0  0  0  0  0  0  0  0  0  0  0
   -7.4140   21.0050   18.3420 C   0  0  0  0  0  0  0  0  0  0  0  0
   -6.8860   22.1990   18.8100 C   0  0  0  0  0  0  0  0  0  0  0  0
   -5.8500   22.1800   19.7470 C   0  0  0  0  0  0  0  0  0  0  0  0
   -5.2150   23.5060   20.1710 C   0  0  0  0  0  0  0  0  0  0  0  0
  1  4  1  0
  2  6  1  0
  2  7  1  0
  3  6  2  0
  4  6  1  0
  5 11  1  0
  7  8  2  0
  7 12  1  0
  8  9  1  0
  9 10  2  0
 10 11  1  0
 11 12  2  0
 12 13  1  0
M  END
$$$$
