CypD-x0521-pandda-model
     RDKit          3D

 14 15  0  0  1  0  0  0  0  0999 V2000
   -0.7890   23.8490   22.2040 C   0  0  0  0  0  0  0  0  0  0  0  0
   -4.1890   22.0720   21.4460 N   0  0  0  0  0  0  0  0  0  0  0  0
   -2.0240   23.0230   22.5470 C   0  0  2  0  0  0  0  0  0  0  0  0
   -1.5810   21.6300   22.7120 N   0  0  0  0  0  0  0  0  0  0  0  0
   -3.1460   23.1710   21.4750 C   0  0  0  0  0  0  0  0  0  0  0  0
   -5.6160   20.8720   20.0670 N   0  0  0  0  0  0  0  0  0  0  0  0
   -3.7410   20.7060   21.9250 C   0  0  0  0  0  0  0  0  0  0  0  0
   -2.7180   20.7460   23.0600 C   0  0  0  0  0  0  0  0  0  0  0  0
   -5.1480   22.0650   20.4240 C   0  0  0  0  0  0  0  0  0  0  0  0
   -5.5910   23.2370   19.8040 C   0  0  0  0  0  0  0  0  0  0  0  0
   -6.5160   23.1810   18.7860 C   0  0  0  0  0  0  0  0  0  0  0  0
   -6.9770   21.9320   18.4220 C   0  0  0  0  0  0  0  0  0  0  0  0
   -6.4960   20.8200   19.0880 C   0  0  0  0  0  0  0  0  0  0  0  0
   -6.9560   19.4260   18.7210 C   0  0  0  0  0  0  0  0  0  0  0  0
  3  1  1  6
  2  5  1  0
  2  7  1  0
  2  9  1  0
  3  4  1  0
  3  5  1  0
  4  8  1  0
  6  9  2  0
  6 13  1  0
  7  8  1  0
  9 10  1  0
 10 11  2  0
 11 12  1  0
 12 13  2  0
 13 14  1  0
M  CHG  1   4   1
M  END
$$$$
