CypD-x0437-pandda-model
     RDKit          3D

 11 11  0  0  0  0  0  0  0  0999 V2000
   -2.5250   20.9560   22.2100 C   0  0  0  0  0  0  0  0  0  0  0  0
   -4.5870   21.0420   20.8680 N   0  0  0  0  0  0  0  0  0  0  0  0
   -3.2070   22.8320   20.9960 O   0  0  0  0  0  0  0  0  0  0  0  0
   -3.4750   21.6990   21.3090 C   0  0  0  0  0  0  0  0  0  0  0  0
   -6.9590   23.3660   19.2140 N   0  0  0  0  0  0  0  0  0  0  0  0
   -5.6200   21.5110   20.0290 C   0  0  0  0  0  0  0  0  0  0  0  0
   -6.0020   22.8560   19.9780 C   0  0  0  0  0  0  0  0  0  0  0  0
   -7.5630   22.4990   18.4220 C   0  0  0  0  0  0  0  0  0  0  0  0
   -7.2890   21.1440   18.3950 C   0  0  0  0  0  0  0  0  0  0  0  0
   -6.3090   20.6210   19.2130 C   0  0  0  0  0  0  0  0  0  0  0  0
   -6.0110   19.1300   19.1970 C   0  0  0  0  0  0  0  0  0  0  0  0
  1  4  1  0
  2  4  1  0
  2  6  1  0
  3  4  2  0
  5  7  2  0
  5  8  1  0
  6  7  1  0
  6 10  2  0
  8  9  2  0
  9 10  1  0
 10 11  1  0
M  END
$$$$
