CypD-x0498-pandda-model
     RDKit          3D

 13 13  0  0  1  0  0  0  0  0999 V2000
   -3.6220   19.5230   22.1410 C   0  0  0  0  0  0  0  0  0  0  0  0
   -4.5580   20.8220   20.3860 O   0  0  0  0  0  0  0  0  0  0  0  0
   -4.9100   20.1500   21.5930 C   0  0  2  0  0  0  0  0  0  0  0  0
   -5.7420   22.2850   22.4930 O   0  0  0  0  0  0  0  0  0  0  0  0
   -5.5510   21.3610   19.6410 C   0  0  0  0  0  0  0  0  0  0  0  0
   -6.2520   20.5330   23.5620 O   0  0  0  0  0  0  0  0  0  0  0  0
   -5.6400   22.7420   19.5700 C   0  0  0  0  0  0  0  0  0  0  0  0
   -6.6280   23.3410   18.8060 C   0  0  0  0  0  0  0  0  0  0  0  0
   -7.5300   22.5620   18.1000 C   0  0  0  0  0  0  0  0  0  0  0  0
   -7.4480   21.1790   18.1470 C   0  0  0  0  0  0  0  0  0  0  0  0
   -6.4600   20.5970   18.9180 C   0  0  0  0  0  0  0  0  0  0  0  0
   -5.6360   21.0510   22.6170 C   0  0  0  0  0  0  0  0  0  0  0  0
   -6.3860   19.2910   18.9390 F   0  0  0  0  0  0  0  0  0  0  0  0
  3  1  1  1
  2  3  1  0
  2  5  1  0
  3 12  1  0
  4 12  1  0
  5  7  2  0
  5 11  1  0
  6 12  2  0
  7  8  1  0
  8  9  2  0
  9 10  1  0
 10 11  2  0
 11 13  1  0
M  CHG  1   4  -1
M  END
$$$$
