CypD-x0588-pandda-model
     RDKit          3D

 13 13  0  0  0  0  0  0  0  0999 V2000
   -8.1180   27.5820   18.7440 C   0  0  0  0  0  0  0  0  0  0  0  0
   -7.6390   24.6290   19.1430 N   0  0  0  0  0  0  0  0  0  0  0  0
   -8.2270   25.1070   21.2610 O   0  0  0  0  0  0  0  0  0  0  0  0
   -8.9610   26.6660   19.6490 C   0  0  0  0  0  0  0  0  0  0  0  0
   -5.7680   23.8120   21.2000 O   0  0  0  0  0  0  0  0  0  0  0  0
   -8.2410   25.4030   20.0880 C   0  0  0  0  0  0  0  0  0  0  0  0
   -7.1160   23.3300   19.2780 C   0  0  0  0  0  0  0  0  0  0  0  0
   -7.5540   22.3670   18.3820 C   0  0  0  0  0  0  0  0  0  0  0  0
   -7.1440   21.0520   18.4910 C   0  0  0  0  0  0  0  0  0  0  0  0
   -6.2520   20.6770   19.4790 C   0  0  0  0  0  0  0  0  0  0  0  0
   -5.8320   19.2290   19.6050 C   0  0  0  0  0  0  0  0  0  0  0  0
   -5.7740   21.6290   20.3640 C   0  0  0  0  0  0  0  0  0  0  0  0
   -6.2130   22.9370   20.2770 C   0  0  0  0  0  0  0  0  0  0  0  0
  1  4  1  0
  2  6  1  0
  2  7  1  0
  3  6  2  0
  4  6  1  0
  5 13  1  0
  7  8  2  0
  7 13  1  0
  8  9  1  0
  9 10  2  0
 10 11  1  0
 10 12  1  0
 12 13  2  0
M  END
$$$$
