CypD-x0378-pandda-model
     RDKit          3D

 15 16  0  0  0  0  0  0  0  0999 V2000
   -9.0461   30.9242   18.5562 C   0  0  0  0  0  0  0  0  0  0  0  0
   -9.7766   28.6227   18.1037 N   0  0  0  0  0  0  0  0  0  0  0  0
   -9.3482   29.8936   17.4740 C   0  0  0  0  0  0  0  0  0  0  0  0
   -7.2920   25.4003   19.2763 N   0  0  0  0  0  0  0  0  0  0  0  0
   -8.7119   27.8439   18.7876 C   0  0  0  0  0  0  0  0  0  0  0  0
   -6.4070   21.4073   18.7348 N   0  0  0  0  0  0  0  0  0  0  0  0
   -9.3589   26.6965   19.5643 C   0  0  0  0  0  0  0  0  0  0  0  0
   -8.2934   25.8577   20.2708 C   0  0  0  0  0  0  0  0  0  0  0  0
   -6.6289   26.4571   18.4687 C   0  0  0  0  0  0  0  0  0  0  0  0
   -7.6921   27.3151   17.7796 C   0  0  0  0  0  0  0  0  0  0  0  0
   -6.9937   24.0889   19.1109 C   0  0  0  0  0  0  0  0  0  0  0  0
   -7.7861   23.2719   18.3040 C   0  0  0  0  0  0  0  0  0  0  0  0
   -7.4809   21.9516   18.1126 C   0  0  0  0  0  0  0  0  0  0  0  0
   -5.6143   22.1621   19.5394 C   0  0  0  0  0  0  0  0  0  0  0  0
   -5.8882   23.4938   19.7297 C   0  0  0  0  0  0  0  0  0  0  0  0
  1  3  1  0
  2  3  1  0
  2  5  1  0
  4  8  1  0
  4  9  1  0
  4 11  1  0
  5  7  1  0
  5 10  1  0
  6 13  2  0
  6 14  1  0
  7  8  1  0
  9 10  1  0
 11 12  2  0
 11 15  1  0
 12 13  1  0
 14 15  2  0
M  CHG  2   2   1   6   1
M  END
$$$$
