CypD-x0240-pandda-model
     RDKit          3D

 15 17  0  0  1  0  0  0  0  0999 V2000
   -6.7053   23.9557   20.9814 N   0  0  0  0  0  0  0  0  0  0  0  0
   -5.7331   24.0684   23.2783 C   0  0  0  0  0  0  0  0  0  0  0  0
   -8.0118   23.9765   22.8139 O   0  0  0  0  0  0  0  0  0  0  0  0
   -6.9058   24.0053   22.3288 C   0  0  0  0  0  0  0  0  0  0  0  0
   -7.8676   23.9770   20.0139 C   0  0  0  0  0  0  0  0  0  0  0  0
   -7.4176   23.4378   18.6369 C   0  0  1  0  0  0  0  0  0  0  0  0
   -6.3158   24.3827   18.1136 C   0  0  0  0  0  0  0  0  0  0  0  0
   -5.1582   24.4589   19.1473 C   0  0  0  0  0  0  0  0  0  0  0  0
   -5.4214   23.5228   20.3470 C   0  0  2  0  0  0  0  0  0  0  0  0
   -5.7045   22.1312   19.7912 C   0  0  0  0  0  0  0  0  0  0  0  0
   -5.0240   20.9746   20.1309 C   0  0  0  0  0  0  0  0  0  0  0  0
   -5.4012   19.7720   19.5573 C   0  0  0  0  0  0  0  0  0  0  0  0
   -6.4499   19.7294   18.6539 C   0  0  0  0  0  0  0  0  0  0  0  0
   -7.1265   20.8878   18.3091 C   0  0  0  0  0  0  0  0  0  0  0  0
   -6.7537   22.0863   18.8868 C   0  0  0  0  0  0  0  0  0  0  0  0
  1  4  1  0
  1  5  1  0
  1  9  1  0
  2  4  1  0
  3  4  2  0
  6  5  1  1
  6  7  1  0
  6 15  1  0
  7  8  1  0
  9  8  1  6
  9 10  1  0
 10 11  2  0
 10 15  1  0
 11 12  1  0
 12 13  2  0
 13 14  1  0
 14 15  2  0
M  END
$$$$
