CypD-x0886-pandda-model
     RDKit          3D

 13 14  0  0  0  0  0  0  0  0999 V2000
   -3.9411   24.6399   23.3061 C   0  0  0  0  0  0  0  0  0  0  0  0
   -5.0683   24.0076   21.2136 N   0  0  0  0  0  0  0  0  0  0  0  0
   -5.1723   22.6622   23.0244 O   0  0  0  0  0  0  0  0  0  0  0  0
   -4.7785   23.6786   22.5021 C   0  0  0  0  0  0  0  0  0  0  0  0
   -4.8334   21.0020   20.6938 N   0  0  0  0  0  0  0  0  0  0  0  0
   -5.7933   23.2933   20.2437 C   0  0  0  0  0  0  0  0  0  0  0  0
   -6.6766   23.9598   19.4176 C   0  0  0  0  0  0  0  0  0  0  0  0
   -7.4095   23.2822   18.4374 C   0  0  0  0  0  0  0  0  0  0  0  0
   -7.2628   21.9276   18.2665 C   0  0  0  0  0  0  0  0  0  0  0  0
   -6.3689   21.2280   19.0848 C   0  0  0  0  0  0  0  0  0  0  0  0
   -5.9846   19.8727   19.1695 C   0  0  0  0  0  0  0  0  0  0  0  0
   -5.0595   19.7708   20.1531 C   0  0  0  0  0  0  0  0  0  0  0  0
   -5.6430   21.9097   20.0561 C   0  0  0  0  0  0  0  0  0  0  0  0
  1  4  1  0
  2  4  1  0
  2  6  1  0
  3  4  2  0
  5 12  1  0
  5 13  1  0
  6  7  1  0
  6 13  2  0
  7  8  2  0
  8  9  1  0
  9 10  2  0
 10 11  1  0
 10 13  1  0
 11 12  2  0
M  END
$$$$
