CypD-x0306-pandda-model
     RDKit          3D

 17 18  0  0  1  0  0  0  0  0999 V2000
   -6.3987   19.2837   19.0628 C   0  0  0  0  0  0  0  0  0  0  0  0
   -7.0738   27.0443   20.0429 N   0  0  0  0  0  0  0  0  0  0  0  0
   -7.3361   25.1007   21.1262 O   0  0  0  0  0  0  0  0  0  0  0  0
   -6.2473   20.7918   19.1210 C   0  0  0  0  0  0  0  0  0  0  0  0
   -7.7876   29.4107   18.9200 O   0  0  0  0  0  0  0  0  0  0  0  0
   -7.0039   21.6162   18.3042 C   0  0  0  0  0  0  0  0  0  0  0  0
   -6.8548   22.9895   18.3698 C   0  0  0  0  0  0  0  0  0  0  0  0
   -5.9466   23.5528   19.2517 C   0  0  0  0  0  0  0  0  0  0  0  0
   -5.7877   25.0669   19.3226 C   0  0  0  0  0  0  0  0  0  0  0  0
   -6.8030   25.7328   20.2389 C   0  0  0  0  0  0  0  0  0  0  0  0
   -8.0998   27.8648   20.7289 C   0  0  0  0  0  0  0  0  0  0  0  0
   -8.7646   28.8165   19.7199 C   0  0  2  0  0  0  0  0  0  0  0  0
   -9.6886   28.1251   18.7236 C   0  0  0  0  0  0  0  0  0  0  0  0
   -9.5936   29.0092   17.4891 C   0  0  0  0  0  0  0  0  0  0  0  0
   -8.3474   29.8594   17.7269 C   0  0  0  0  0  0  0  0  0  0  0  0
   -5.1906   22.7276   20.0695 C   0  0  0  0  0  0  0  0  0  0  0  0
   -5.3418   21.3534   20.0040 C   0  0  0  0  0  0  0  0  0  0  0  0
  1  4  1  0
  2 10  1  0
  2 11  1  0
  3 10  2  0
  4  6  2  0
  4 17  1  0
  5 12  1  0
  5 15  1  0
  6  7  1  0
  7  8  2  0
  8  9  1  0
  8 16  1  0
  9 10  1  0
 12 11  1  1
 12 13  1  0
 13 14  1  0
 14 15  1  0
 16 17  2  0
M  END
$$$$
