CypD-x0897-pandda-model
     RDKit          3D

 15 17  0  0  1  0  0  0  0  0999 V2000
   -6.6940   27.7810   18.7810 C   0  0  0  0  0  0  0  0  0  0  0  0
   -5.8510   27.1310   16.5470 N   0  0  0  0  0  0  0  0  0  0  0  0
   -6.8210   27.9960   17.2750 C   0  0  0  0  0  0  0  0  0  0  0  0
   -3.5640   22.9430   20.9600 N   0  0  0  0  0  0  0  0  0  0  0  0
   -5.5710   25.7770   17.1510 C   0  0  0  0  0  0  0  0  0  0  0  0
   -6.6530   25.2860   18.1350 C   0  0  2  0  0  0  0  0  0  0  0  0
   -7.0550   26.3420   19.1900 C   0  0  0  0  0  0  0  0  0  0  0  0
   -6.2100   23.9790   18.7880 C   0  0  0  0  0  0  0  0  0  0  0  0
   -6.9150   22.8120   18.5720 C   0  0  0  0  0  0  0  0  0  0  0  0
   -6.5160   21.6050   19.1600 C   0  0  0  0  0  0  0  0  0  0  0  0
   -5.4100   21.5550   19.9750 C   0  0  0  0  0  0  0  0  0  0  0  0
   -4.6910   22.7290   20.2020 C   0  0  0  0  0  0  0  0  0  0  0  0
   -3.2370   24.2650   20.8570 C   0  0  0  0  0  0  0  0  0  0  0  0
   -4.1310   24.8930   20.0600 C   0  0  0  0  0  0  0  0  0  0  0  0
   -5.0750   23.9350   19.6190 C   0  0  0  0  0  0  0  0  0  0  0  0
  1  3  1  0
  1  7  1  0
  2  3  1  0
  2  5  1  0
  4 12  1  0
  4 13  1  0
  5  6  1  0
  6  7  1  0
  6  8  1  1
  8  9  1  0
  8 15  2  0
  9 10  2  0
 10 11  1  0
 11 12  2  0
 12 15  1  0
 13 14  2  0
 14 15  1  0
M  CHG  1   2   1
M  END
$$$$
