CypD-x0593-pandda-model
     RDKit          3D

 14 14  0  0  0  0  0  0  0  0999 V2000
   -3.2480   22.3810   24.8190 C   0  0  0  0  0  0  0  0  0  0  0  0
   -3.1160   21.6040   23.5550 N   0  0  0  0  0  0  0  0  0  0  0  0
   -5.3370   21.4590   23.1870 O   0  0  0  0  0  0  0  0  0  0  0  0
   -1.7030   21.2510   23.2330 C   0  0  0  0  0  0  0  0  0  0  0  0
   -5.1760   20.2800   20.7380 O   0  0  0  0  0  0  0  0  0  0  0  0
   -4.2080   21.1850   22.8290 C   0  0  0  0  0  0  0  0  0  0  0  0
   -3.9980   20.4140   21.5200 C   0  0  0  0  0  0  0  0  0  0  0  0
   -5.6470   21.2700   19.9370 C   0  0  0  0  0  0  0  0  0  0  0  0
   -5.2970   22.6090   20.0910 C   0  0  0  0  0  0  0  0  0  0  0  0
   -5.8450   23.5690   19.2580 C   0  0  0  0  0  0  0  0  0  0  0  0
   -6.7400   23.1990   18.2690 C   0  0  0  0  0  0  0  0  0  0  0  0
   -7.0770   21.8680   18.1040 C   0  0  0  0  0  0  0  0  0  0  0  0
   -6.5280   20.8980   18.9280 C   0  0  0  0  0  0  0  0  0  0  0  0
   -6.8730   19.4300   18.7180 C   0  0  0  0  0  0  0  0  0  0  0  0
  1  2  1  0
  2  4  1  0
  2  6  1  0
  3  6  2  0
  5  7  1  0
  5  8  1  0
  6  7  1  0
  8  9  2  0
  8 13  1  0
  9 10  1  0
 10 11  2  0
 11 12  1  0
 12 13  2  0
 13 14  1  0
M  END
$$$$
