CypD-x0475-pandda-model
     RDKit          3D

 14 14  0  0  0  0  0  0  0  0999 V2000
   -7.2760   19.0040   18.2420 C   0  0  0  0  0  0  0  0  0  0  0  0
   -5.0830   21.7530   22.1450 N   0  0  0  0  0  0  0  0  0  0  0  0
   -5.9540   23.7450   21.6820 O   0  0  0  0  0  0  0  0  0  0  0  0
   -7.0130   20.4720   18.5040 C   0  0  0  0  0  0  0  0  0  0  0  0
   -7.6120   22.3340   24.2610 O   0  0  0  0  0  0  0  0  0  0  0  0
   -7.3570   21.4340   17.5710 C   0  0  0  0  0  0  0  0  0  0  0  0
   -7.2420   20.2630   23.7940 O   0  0  0  0  0  0  0  0  0  0  0  0
   -7.0970   22.7660   17.8240 C   0  0  0  0  0  0  0  0  0  0  0  0
   -6.5170   23.1380   19.0200 C   0  0  0  0  0  0  0  0  0  0  0  0
   -6.1920   22.1950   19.9950 C   0  0  0  0  0  0  0  0  0  0  0  0
   -6.4350   20.8540   19.6990 C   0  0  0  0  0  0  0  0  0  0  0  0
   -5.7050   22.6170   21.2940 C   0  0  0  0  0  0  0  0  0  0  0  0
   -5.3720   21.7550   23.6250 C   0  0  0  0  0  0  0  0  0  0  0  0
   -6.8310   21.4200   23.9530 C   0  0  0  0  0  0  0  0  0  0  0  0
  1  4  1  0
  2 12  1  0
  2 13  1  0
  3 12  2  0
  4  6  2  0
  4 11  1  0
  5 14  1  0
  6  8  1  0
  7 14  2  0
  8  9  2  0
  9 10  1  0
 10 11  2  0
 10 12  1  0
 13 14  1  0
M  CHG  1   5  -1
M  END
$$$$
