CypD-x0799-pandda-model
     RDKit          3D

 14 15  0  0  1  0  0  0  0  0999 V2000
   -7.5420   27.9300   18.2970 C   0  0  2  0  0  0  0  0  0  0  0  0
   -5.6990   26.3600   18.0400 N   0  0  2  0  0  0  0  0  0  0  0  0
   -8.4470   27.9100   17.2500 O   0  0  0  0  0  0  0  0  0  0  0  0
   -6.2920   28.6390   17.7990 C   0  0  0  0  0  0  0  0  0  0  0  0
   -5.5030   27.5230   17.1360 C   0  0  0  0  0  0  0  0  0  0  0  0
   -5.4430   25.0840   17.3280 C   0  0  0  0  0  0  0  0  0  0  0  0
   -5.4650   23.9180   18.3030 C   0  0  0  0  0  0  0  0  0  0  0  0
   -6.4390   22.9340   18.1810 C   0  0  0  0  0  0  0  0  0  0  0  0
   -6.4290   21.8350   19.0240 C   0  0  0  0  0  0  0  0  0  0  0  0
   -5.4530   21.7380   19.9990 C   0  0  0  0  0  0  0  0  0  0  0  0
   -4.4850   22.7120   20.1420 C   0  0  0  0  0  0  0  0  0  0  0  0
   -4.4900   23.8020   19.2880 C   0  0  0  0  0  0  0  0  0  0  0  0
   -7.0910   26.4860   18.5830 C   0  0  0  0  0  0  0  0  0  0  0  0
   -5.4420   20.3670   21.0760 Cl  0  0  0  0  0  0  0  0  0  0  0  0
  1  3  1  6
  1  4  1  0
  1 13  1  0
  2  5  1  0
  2  6  1  6
  2 13  1  0
  4  5  1  0
  6  7  1  0
  7  8  2  0
  7 12  1  0
  8  9  1  0
  9 10  2  0
 10 11  1  0
 10 14  1  0
 11 12  2  0
M  CHG  1   2   1
M  END
$$$$
