CypD-x0610-pandda-model
     RDKit          3D

 17 18  0  0  0  0  0  0  0  0999 V2000
   -5.9718   20.8024   19.5703 C   0  0  0  0  0  0  0  0  0  0  0  0
   -9.4634   25.4408   19.3754 N   0  0  0  0  0  0  0  0  0  0  0  0
   -7.9261   25.1448   21.0051 O   0  0  0  0  0  0  0  0  0  0  0  0
   -6.9889   21.0532   18.6722 C   0  0  0  0  0  0  0  0  0  0  0  0
  -10.8453   24.8734   21.1444 N   0  0  0  0  0  0  0  0  0  0  0  0
   -7.3387   22.3626   18.3998 C   0  0  0  0  0  0  0  0  0  0  0  0
  -11.4672   26.4585   19.4782 N   0  0  0  0  0  0  0  0  0  0  0  0
   -6.6783   23.4040   19.0353 C   0  0  0  0  0  0  0  0  0  0  0  0
   -7.1296   24.8410   18.8183 C   0  0  0  0  0  0  0  0  0  0  0  0
   -8.2126   25.1671   19.8311 C   0  0  0  0  0  0  0  0  0  0  0  0
  -10.6319   25.6037   20.0527 C   0  0  0  0  0  0  0  0  0  0  0  0
  -12.0299   25.0210   21.6945 C   0  0  0  0  0  0  0  0  0  0  0  0
  -12.9714   25.8827   21.1893 C   0  0  0  0  0  0  0  0  0  0  0  0
  -12.6347   26.5933   20.0640 C   0  0  0  0  0  0  0  0  0  0  0  0
   -5.6423   23.1353   19.9183 C   0  0  0  0  0  0  0  0  0  0  0  0
   -5.2827   21.8272   20.1883 C   0  0  0  0  0  0  0  0  0  0  0  0
   -5.5589   19.1604   19.9508 Cl  0  0  0  0  0  0  0  0  0  0  0  0
  1  4  2  0
  1 16  1  0
  1 17  1  0
  2 10  1  0
  2 11  1  0
  3 10  2  0
  4  6  1  0
  5 11  2  0
  5 12  1  0
  6  8  2  0
  7 11  1  0
  7 14  2  0
  8  9  1  0
  8 15  1  0
  9 10  1  0
 12 13  2  0
 13 14  1  0
 15 16  2  0
M  END
$$$$
