CypD-x0354-pandda-model
     RDKit          3D

 14 15  0  0  0  0  0  0  0  0999 V2000
   -4.9920   22.8260   21.0560 C   0  0  0  0  0  0  0  0  0  0  0  0
   -6.7710   23.7730   19.0350 N   0  0  0  0  0  0  0  0  0  0  0  0
   -4.7820   22.1960   22.2780 O   0  0  0  0  0  0  0  0  0  0  0  0
   -5.7120   21.8760   20.1040 C   0  0  0  0  0  0  0  0  0  0  0  0
   -6.9910   26.4960   19.0540 O   0  0  0  0  0  0  0  0  0  0  0  0
   -5.5110   20.5040   20.1650 C   0  0  0  0  0  0  0  0  0  0  0  0
   -6.2070   19.6520   19.3280 C   0  0  0  0  0  0  0  0  0  0  0  0
   -7.1170   20.1640   18.4250 C   0  0  0  0  0  0  0  0  0  0  0  0
   -7.2900   21.5310   18.3240 C   0  0  0  0  0  0  0  0  0  0  0  0
   -6.5890   22.4000   19.1520 C   0  0  0  0  0  0  0  0  0  0  0  0
   -6.0500   24.4870   17.9400 C   0  0  0  0  0  0  0  0  0  0  0  0
   -5.9720   26.0090   18.2100 C   0  0  0  0  0  0  0  0  0  0  0  0
   -8.2190   25.8440   18.9170 C   0  0  0  0  0  0  0  0  0  0  0  0
   -8.1110   24.3650   19.3430 C   0  0  0  0  0  0  0  0  0  0  0  0
  1  3  1  0
  1  4  1  0
  2 10  1  0
  2 11  1  0
  2 14  1  0
  4  6  2  0
  4 10  1  0
  5 12  1  0
  5 13  1  0
  6  7  1  0
  7  8  2  0
  8  9  1  0
  9 10  2  0
 11 12  1  0
 13 14  1  0
M  END
$$$$
