CypD-x0597-pandda-model
     RDKit          3D

 17 19  0  0  0  0  0  0  0  0999 V2000
   -6.2160   21.2630   19.3720 C   0  0  0  0  0  0  0  0  0  0  0  0
   -2.7480   24.8340   19.1380 N   0  0  0  0  0  0  0  0  0  0  0  0
   -6.6290   22.4140   18.7300 C   0  0  0  0  0  0  0  0  0  0  0  0
   -0.5860   24.6500   18.6200 N   0  0  0  0  0  0  0  0  0  0  0  0
   -5.9100   23.5800   18.9350 C   0  0  0  0  0  0  0  0  0  0  0  0
   -4.7920   23.5840   19.7640 C   0  0  0  0  0  0  0  0  0  0  0  0
   -3.9790   24.8620   19.9570 C   0  0  0  0  0  0  0  0  0  0  0  0
   -1.4720   24.6130   19.5560 C   0  0  0  0  0  0  0  0  0  0  0  0
   -1.3090   24.9010   17.4940 C   0  0  0  0  0  0  0  0  0  0  0  0
   -0.8780   25.0140   16.1730 C   0  0  0  0  0  0  0  0  0  0  0  0
   -1.8000   25.2790   15.1840 C   0  0  0  0  0  0  0  0  0  0  0  0
   -3.1550   25.4390   15.5020 C   0  0  0  0  0  0  0  0  0  0  0  0
   -3.5900   25.3200   16.8010 C   0  0  0  0  0  0  0  0  0  0  0  0
   -2.6520   25.0360   17.7970 C   0  0  0  0  0  0  0  0  0  0  0  0
   -4.4090   22.4120   20.4070 C   0  0  0  0  0  0  0  0  0  0  0  0
   -5.1200   21.2390   20.2120 C   0  0  0  0  0  0  0  0  0  0  0  0
   -6.8870   20.1610   19.1830 F   0  0  0  0  0  0  0  0  0  0  0  0
  1  3  2  0
  1 16  1  0
  1 17  1  0
  2  7  1  0
  2  8  1  0
  2 14  1  0
  3  5  1  0
  4  8  2  0
  4  9  1  0
  5  6  2  0
  6  7  1  0
  6 15  1  0
  9 10  2  0
  9 14  1  0
 10 11  1  0
 11 12  2  0
 12 13  1  0
 13 14  2  0
 15 16  2  0
M  END
$$$$
