CypD-x0709-pandda-model
     RDKit          3D

 15 15  0  0  0  0  0  0  0  0999 V2000
  -20.8409   25.3781   20.2044 C   0  0  0  0  0  0  0  0  0  0  0  0
  -19.2331   23.8357   19.1042 N   0  0  0  0  0  0  0  0  0  0  0  0
  -19.7121   25.8008   18.1937 O   0  0  0  0  0  0  0  0  0  0  0  0
  -13.5388   22.7732   22.7193 S   0  0  0  0  0  0  0  0  0  0  0  0
  -19.8926   25.0116   19.0895 C   0  0  0  0  0  0  0  0  0  0  0  0
  -13.8792   23.2472   24.2785 N   0  0  0  0  0  0  0  0  0  0  0  0
  -12.6690   23.8111   22.2038 O   0  0  0  0  0  0  0  0  0  0  0  0
  -19.1372   22.8197   20.1736 C   0  0  0  0  0  0  0  0  0  0  0  0
  -13.0297   21.4302   22.8464 O   0  0  0  0  0  0  0  0  0  0  0  0
  -17.7320   22.8193   20.7702 C   0  0  0  0  0  0  0  0  0  0  0  0
  -17.0816   21.6201   21.0122 C   0  0  0  0  0  0  0  0  0  0  0  0
  -15.8166   21.6069   21.5785 C   0  0  0  0  0  0  0  0  0  0  0  0
  -15.1652   22.7877   21.9176 C   0  0  0  0  0  0  0  0  0  0  0  0
  -15.8192   23.9845   21.6508 C   0  0  0  0  0  0  0  0  0  0  0  0
  -17.0839   24.0028   21.0893 C   0  0  0  0  0  0  0  0  0  0  0  0
  1  5  1  0
  2  5  1  0
  2  8  1  0
  3  5  2  0
  4  6  1  0
  4  7  2  0
  4  9  2  0
  4 13  1  0
  8 10  1  0
 10 11  2  0
 10 15  1  0
 11 12  1  0
 12 13  2  0
 13 14  1  0
 14 15  2  0
M  END
$$$$
