CypD-x0081-pandda-model
     RDKit          3D

 18 20  0  0  0  0  0  0  0  0999 V2000
   -9.1880   25.5900   20.2570 C   0  0  1  0  0  0  0  0  0  0  0  0
   -7.6240   24.3260   19.5930 N   0  0  2  0  0  0  0  0  0  0  0  0
  -10.3540   26.1740   19.7620 O   0  0  0  0  0  0  0  0  0  0  0  0
   -9.0660   24.0720   19.9320 C   0  0  0  0  0  0  0  0  0  0  0  0
   -7.9730   25.7580   19.3030 C   0  0  0  0  0  0  0  0  0  0  0  0
   -7.1250   23.5980   18.4190 C   0  0  0  0  0  0  0  0  0  0  0  0
   -6.8980   22.1390   18.7930 C   0  0  0  0  0  0  0  0  0  0  0  0
   -7.5360   21.1520   18.0520 C   0  0  0  0  0  0  0  0  0  0  0  0
   -7.3530   19.8140   18.3540 C   0  0  0  0  0  0  0  0  0  0  0  0
   -6.5220   19.4510   19.3950 C   0  0  0  0  0  0  0  0  0  0  0  0
   -5.8860   20.4200   20.1400 C   0  0  0  0  0  0  0  0  0  0  0  0
   -6.0700   21.7570   19.8450 C   0  0  0  0  0  0  0  0  0  0  0  0
   -5.8590   24.2780   17.9050 C   0  0  0  0  0  0  0  0  0  0  0  0
   -5.8130   24.6130   16.5620 C   0  0  0  0  0  0  0  0  0  0  0  0
   -4.7120   25.2480   16.0240 C   0  0  0  0  0  0  0  0  0  0  0  0
   -3.6300   25.5550   16.8250 C   0  0  0  0  0  0  0  0  0  0  0  0
   -3.6560   25.2240   18.1670 C   0  0  0  0  0  0  0  0  0  0  0  0
   -4.7650   24.5940   18.7070 C   0  0  0  0  0  0  0  0  0  0  0  0
  1  3  1  6
  1  4  1  0
  1  5  1  0
  2  4  1  0
  2  5  1  0
  2  6  1  6
  6  7  1  0
  6 13  1  0
  7  8  2  0
  7 12  1  0
  8  9  1  0
  9 10  2  0
 10 11  1  0
 11 12  2  0
 13 14  2  0
 13 18  1  0
 14 15  1  0
 15 16  2  0
 16 17  1  0
 17 18  2  0
M  CHG  1   2   1
M  END
$$$$
