CypD-x0114-pandda-model
     RDKit          3D

 11 11  0  0  0  0  0  0  0  0999 V2000
   -6.0291   19.3238   18.9591 C   0  0  0  0  0  0  0  0  0  0  0  0
   -8.3352   23.0599   18.9706 N   0  0  0  0  0  0  0  0  0  0  0  0
   -5.6362   20.6445   18.6169 O   0  0  0  0  0  0  0  0  0  0  0  0
   -6.4218   21.6509   19.0848 C   0  0  0  0  0  0  0  0  0  0  0  0
   -8.9191   24.2557   20.7735 O   0  0  0  0  0  0  0  0  0  0  0  0
   -6.0448   22.2584   20.3091 C   0  0  0  0  0  0  0  0  0  0  0  0
   -6.8552   23.2087   20.8461 C   0  0  0  0  0  0  0  0  0  0  0  0
   -8.0716   23.5772   20.2070 C   0  0  0  0  0  0  0  0  0  0  0  0
   -7.5300   22.0801   18.4154 C   0  0  0  0  0  0  0  0  0  0  0  0
   -7.2401   19.0989   18.4622 F   0  0  0  0  0  0  0  0  0  0  0  0
   -6.1509   19.2386   20.2792 F   0  0  0  0  0  0  0  0  0  0  0  0
  1  3  1  0
  1 10  1  0
  1 11  1  0
  2  8  1  0
  2  9  1  0
  3  4  1  0
  4  6  1  0
  4  9  2  0
  5  8  2  0
  6  7  2  0
  7  8  1  0
M  END
$$$$
