CypD-x0162-pandda-model
     RDKit          3D

 16 17  0  0  0  0  0  0  0  0999 V2000
   -6.3790   19.6050   19.3800 C   0  0  0  0  0  0  0  0  0  0  0  0
   -4.0440   25.4240   17.7330 N   0  0  0  0  0  0  0  0  0  0  0  0
   -1.7100   24.7010   15.3350 O   0  0  0  0  0  0  0  0  0  0  0  0
   -2.4550   25.9450   15.2590 S   0  0  0  0  0  0  0  0  0  0  0  0
   -6.0400   21.0840   19.3110 C   0  0  0  0  0  0  0  0  0  0  0  0
   -2.1600   26.8380   14.1570 O   0  0  0  0  0  0  0  0  0  0  0  0
   -6.7490   21.9500   18.4930 C   0  0  0  0  0  0  0  0  0  0  0  0
   -6.3770   23.2810   18.3910 C   0  0  0  0  0  0  0  0  0  0  0  0
   -5.2890   23.7670   19.1030 C   0  0  0  0  0  0  0  0  0  0  0  0
   -4.8310   25.2170   18.9730 C   0  0  0  0  0  0  0  0  0  0  0  0
   -2.7660   26.1210   17.9940 C   0  0  0  0  0  0  0  0  0  0  0  0
   -2.1960   26.8490   16.7730 C   0  0  0  0  0  0  0  0  0  0  0  0
   -4.2170   25.6460   15.2960 C   0  0  0  0  0  0  0  0  0  0  0  0
   -4.8560   25.9810   16.6410 C   0  0  0  0  0  0  0  0  0  0  0  0
   -4.6060   22.9040   19.9480 C   0  0  0  0  0  0  0  0  0  0  0  0
   -4.9770   21.5740   20.0510 C   0  0  0  0  0  0  0  0  0  0  0  0
  1  5  1  0
  2 10  1  0
  2 11  1  0
  2 14  1  0
  3  4  2  0
  4  6  2  0
  4 12  1  0
  4 13  1  0
  5  7  2  0
  5 16  1  0
  7  8  1  0
  8  9  2  0
  9 10  1  0
  9 15  1  0
 11 12  1  0
 13 14  1  0
 15 16  2  0
M  END
$$$$
