CypD-x0043-pandda-model
     RDKit          3D

 14 14  0  0  0  0  0  0  0  0999 V2000
   -6.1947   25.6048   17.8705 C   0  0  0  0  0  0  0  0  0  0  0  0
   -4.1060   23.3968   20.6141 N   0  0  0  0  0  0  0  0  0  0  0  0
   -5.5956   24.8108   18.8679 O   0  0  0  0  0  0  0  0  0  0  0  0
   -5.8232   23.4659   18.9233 C   0  0  0  0  0  0  0  0  0  0  0  0
   -1.4663   23.9060   21.9977 N   0  0  0  0  0  0  0  0  0  0  0  0
   -4.6730   22.7081   22.6812 O   0  0  0  0  0  0  0  0  0  0  0  0
   -6.7678   22.8189   18.1364 C   0  0  0  0  0  0  0  0  0  0  0  0
   -6.9050   21.4446   18.2093 C   0  0  0  0  0  0  0  0  0  0  0  0
   -6.1067   20.7026   19.0646 C   0  0  0  0  0  0  0  0  0  0  0  0
   -6.2114   19.1894   19.0982 C   0  0  0  0  0  0  0  0  0  0  0  0
   -5.1969   21.3514   19.8816 C   0  0  0  0  0  0  0  0  0  0  0  0
   -5.0484   22.7300   19.8203 C   0  0  0  0  0  0  0  0  0  0  0  0
   -3.9393   23.3491   21.9641 C   0  0  0  0  0  0  0  0  0  0  0  0
   -2.8026   24.1795   22.5755 C   0  0  0  0  0  0  0  0  0  0  0  0
  1  3  1  0
  2 12  1  0
  2 13  1  0
  3  4  1  0
  4  7  2  0
  4 12  1  0
  5 14  1  0
  6 13  2  0
  7  8  1  0
  8  9  2  0
  9 10  1  0
  9 11  1  0
 11 12  2  0
 13 14  1  0
M  END
$$$$
