CypD-x0903-pandda-model
     RDKit          3D

 16 17  0  0  1  0  0  0  0  0999 V2000
   -6.1801   24.6336   17.6818 C   0  0  0  0  0  0  0  0  0  0  0  0
   -6.0251   23.3917   18.4641 N   0  0  0  0  0  0  0  0  0  0  0  0
   -6.6738   22.2427   18.2037 C   0  0  0  0  0  0  0  0  0  0  0  0
   -5.3386   21.8827   19.9364 N   0  0  0  0  0  0  0  0  0  0  0  0
   -6.2500   21.3165   19.0996 C   0  0  0  0  0  0  0  0  0  0  0  0
   -2.4227   24.2262   21.8969 N   0  0  0  0  0  0  0  0  0  0  0  0
   -5.2334   23.1093   19.5320 C   0  0  0  0  0  0  0  0  0  0  0  0
   -4.2958   24.1061   20.2091 C   0  0  1  0  0  0  0  0  0  0  0  0
   -5.0810   25.1185   21.0644 C   0  0  0  0  0  0  0  0  0  0  0  0
   -4.1384   25.9877   21.9201 C   0  0  0  0  0  0  0  0  0  0  0  0
   -3.1806   25.1477   22.7752 C   0  0  0  0  0  0  0  0  0  0  0  0
   -3.3060   23.3313   21.0960 C   0  0  0  0  0  0  0  0  0  0  0  0
   -6.6860   19.8295   19.2100 C   0  0  0  0  0  0  0  0  0  0  0  0
   -7.6339   19.5013   18.3374 F   0  0  0  0  0  0  0  0  0  0  0  0
   -7.1737   19.5468   20.4121 F   0  0  0  0  0  0  0  0  0  0  0  0
   -5.6719   18.9964   19.0157 F   0  0  0  0  0  0  0  0  0  0  0  0
  1  2  1  0
  2  3  1  0
  2  7  1  0
  3  5  2  0
  4  5  1  0
  4  7  2  0
  5 13  1  0
  6 11  1  0
  6 12  1  0
  8  7  1  1
  8  9  1  0
  8 12  1  0
  9 10  1  0
 10 11  1  0
 13 14  1  0
 13 15  1  0
 13 16  1  0
M  CHG  1   6   1
M  END
$$$$
