CypD-x0333-pandda-model
     RDKit          3D

 14 14  0  0  0  0  0  0  0  0999 V2000
   -6.0940   24.5440   17.2830 C   0  0  0  0  0  0  0  0  0  0  0  0
   -6.6990   23.4340   19.4090 N   0  0  0  0  0  0  0  0  0  0  0  0
   -6.6490   25.6650   19.2620 O   0  0  0  0  0  0  0  0  0  0  0  0
   -6.5180   24.5930   18.7300 C   0  0  0  0  0  0  0  0  0  0  0  0
   -6.0740   22.5700   21.9950 O   0  0  0  0  0  0  0  0  0  0  0  0
   -6.7860   22.1210   18.9440 C   0  0  0  0  0  0  0  0  0  0  0  0
   -4.6240   21.1670   22.6630 O   0  0  0  0  0  0  0  0  0  0  0  0
   -7.8010   21.7610   18.0700 C   0  0  0  0  0  0  0  0  0  0  0  0
   -7.9580   20.4460   17.6790 C   0  0  0  0  0  0  0  0  0  0  0  0
   -7.0980   19.4770   18.1630 C   0  0  0  0  0  0  0  0  0  0  0  0
   -6.0630   19.8300   19.0090 C   0  0  0  0  0  0  0  0  0  0  0  0
   -5.8990   21.1490   19.3970 C   0  0  0  0  0  0  0  0  0  0  0  0
   -4.7370   21.5250   20.3110 C   0  0  0  0  0  0  0  0  0  0  0  0
   -5.1490   21.7910   21.7360 C   0  0  0  0  0  0  0  0  0  0  0  0
  1  4  1  0
  2  4  1  0
  2  6  1  0
  3  4  2  0
  5 14  1  0
  6  8  2  0
  6 12  1  0
  7 14  2  0
  8  9  1  0
  9 10  2  0
 10 11  1  0
 11 12  2  0
 12 13  1  0
 13 14  1  0
M  CHG  1   5  -1
M  END
$$$$
