CypD-x0173-pandda-model
     RDKit          3D

 18 19  0  0  0  0  0  0  0  0999 V2000
   -6.1503   25.4845   18.0045 C   0  0  0  0  0  0  0  0  0  0  0  0
   -4.1304   22.8941   20.5078 N   0  0  0  0  0  0  0  0  0  0  0  0
   -5.5378   24.5694   18.8887 O   0  0  0  0  0  0  0  0  0  0  0  0
   -5.8745   23.2467   18.8660 C   0  0  0  0  0  0  0  0  0  0  0  0
   -3.0902   22.1590   22.4598 N   0  0  0  0  0  0  0  0  0  0  0  0
   -5.1504   22.9946   22.4784 O   0  0  0  0  0  0  0  0  0  0  0  0
   -6.9057   22.7360   18.0875 C   0  0  0  0  0  0  0  0  0  0  0  0
   -3.1151   21.7812   23.8309 N   0  0  0  0  0  0  0  0  0  0  0  0
   -7.1588   21.3758   18.0771 C   0  0  0  0  0  0  0  0  0  0  0  0
   -3.4694   20.6412   25.6492 N   0  0  0  0  0  0  0  0  0  0  0  0
   -6.3891   20.5123   18.8387 C   0  0  0  0  0  0  0  0  0  0  0  0
   -3.1819   21.8945   26.0029 N   0  0  0  0  0  0  0  0  0  0  0  0
   -6.6179   19.0157   18.7994 C   0  0  0  0  0  0  0  0  0  0  0  0
   -5.3842   21.0215   19.6390 C   0  0  0  0  0  0  0  0  0  0  0  0
   -5.1264   22.3841   19.6713 C   0  0  0  0  0  0  0  0  0  0  0  0
   -4.1542   22.6998   21.8442 C   0  0  0  0  0  0  0  0  0  0  0  0
   -3.4219   20.5990   24.3559 C   0  0  0  0  0  0  0  0  0  0  0  0
   -2.9707   22.5510   24.9060 C   0  0  0  0  0  0  0  0  0  0  0  0
  1  3  1  0
  2 15  1  0
  2 16  1  0
  3  4  1  0
  4  7  2  0
  4 15  1  0
  5  8  1  0
  5 16  1  0
  6 16  2  0
  7  9  1  0
  8 17  1  0
  8 18  1  0
  9 11  2  0
 10 12  1  0
 10 17  2  0
 11 13  1  0
 11 14  1  0
 12 18  2  0
 14 15  2  0
M  END
$$$$
