CypD-x0543-pandda-model
     RDKit          3D

  9  9  0  0  1  0  0  0  0  0999 V2000
   -6.5539   19.4931   18.9296 C   0  0  0  0  0  0  0  0  0  0  0  0
   -6.1724   22.1130   22.4169 O   0  0  0  0  0  0  0  0  0  0  0  0
   -4.6543   22.9262   19.9391 S   0  0  0  0  0  0  0  0  0  0  0  0
   -6.1252   20.9350   19.1301 C   0  0  0  0  0  0  0  0  0  0  0  0
   -6.4294   20.0453   22.0938 O   0  0  0  0  0  0  0  0  0  0  0  0
   -6.4674   21.9660   18.3537 C   0  0  0  0  0  0  0  0  0  0  0  0
   -5.9001   23.3251   18.6932 C   0  0  0  0  0  0  0  0  0  0  0  0
   -5.2246   21.2253   20.3359 C   0  0  2  0  0  0  0  0  0  0  0  0
   -5.9450   21.1225   21.7054 C   0  0  0  0  0  0  0  0  0  0  0  0
  1  4  1  0
  2  9  1  0
  3  7  1  0
  3  8  1  0
  4  6  2  0
  4  8  1  0
  5  9  2  0
  6  7  1  0
  8  9  1  1
M  CHG  1   2  -1
M  END
$$$$
