CypD-x0324-pandda-model
     RDKit          3D

 10 10  0  0  1  0  0  0  0  0999 V2000
   -4.1000   25.2630   19.9180 C   0  0  0  0  0  0  0  0  0  0  0  0
   -5.5490   22.5710   19.8720 N   0  0  0  0  0  0  0  0  0  0  0  0
   -6.2830   23.3620   21.8300 O   0  0  0  0  0  0  0  0  0  0  0  0
   -5.5710   25.0090   20.2890 C   0  0  0  0  0  0  0  0  0  0  0  0
   -4.6810   19.0390   19.6510 N   0  0  0  0  0  0  0  0  0  0  0  0
   -5.8320   23.5810   20.7300 C   0  0  0  0  0  0  0  0  0  0  0  0
   -5.6980   21.1380   20.2020 C   0  0  1  0  0  0  0  0  0  0  0  0
   -6.5120   20.4190   19.1410 C   0  0  0  0  0  0  0  0  0  0  0  0
   -6.1210   18.9650   19.3440 C   0  0  0  0  0  0  0  0  0  0  0  0
   -4.3790   20.3650   20.2550 C   0  0  0  0  0  0  0  0  0  0  0  0
  1  4  1  0
  2  6  1  0
  7  2  1  6
  3  6  2  0
  4  6  1  0
  5  9  1  0
  5 10  1  0
  7  8  1  0
  7 10  1  0
  8  9  1  0
M  CHG  1   5   1
M  END
$$$$
