CypD-x0386-pandda-model
     RDKit          3D

 15 15  0  0  0  0  0  0  0  0999 V2000
   -5.2990   24.5630   18.9300 C   0  0  0  0  0  0  0  0  0  0  0  0
   -5.5510   24.1770   20.3410 N   0  0  0  0  0  0  0  0  0  0  0  0
   -7.8940   24.5990   22.8340 O   0  0  0  0  0  0  0  0  0  0  0  0
   -6.2810   25.2170   21.1630 C   0  0  0  0  0  0  0  0  0  0  0  0
   -8.5280   24.4710   20.7890 O   0  0  0  0  0  0  0  0  0  0  0  0
   -7.6710   24.7680   21.6270 C   0  0  0  0  0  0  0  0  0  0  0  0
   -5.4060   22.6230   21.9380 O   0  0  0  0  0  0  0  0  0  0  0  0
   -5.6330   22.8700   20.7660 C   0  0  0  0  0  0  0  0  0  0  0  0
   -6.0630   21.7910   19.9030 C   0  0  0  0  0  0  0  0  0  0  0  0
   -5.4670   20.5300   19.9950 C   0  0  0  0  0  0  0  0  0  0  0  0
   -5.9480   19.4560   19.2690 C   0  0  0  0  0  0  0  0  0  0  0  0
   -7.0400   19.6530   18.4500 C   0  0  0  0  0  0  0  0  0  0  0  0
   -7.6230   20.8920   18.2830 C   0  0  0  0  0  0  0  0  0  0  0  0
   -7.1340   21.9540   19.0180 C   0  0  0  0  0  0  0  0  0  0  0  0
   -7.5520   18.6340   17.8270 F   0  0  0  0  0  0  0  0  0  0  0  0
  1  2  1  0
  2  4  1  0
  2  8  1  0
  3  6  1  0
  4  6  1  0
  5  6  2  0
  7  8  2  0
  8  9  1  0
  9 10  2  0
  9 14  1  0
 10 11  1  0
 11 12  2  0
 12 13  1  0
 12 15  1  0
 13 14  2  0
M  CHG  1   3  -1
M  END
$$$$
