CypD-x0084-pandda-model
     RDKit          3D

 14 15  0  0  0  0  0  0  0  0999 V2000
   -1.9717   25.3177   16.1267 C   0  0  0  0  0  0  0  0  0  0  0  0
   -3.3370   25.1100   16.6209 N   0  0  0  0  0  0  0  0  0  0  0  0
   -4.4541   24.9939   15.8772 C   0  0  0  0  0  0  0  0  0  0  0  0
   -5.5336   24.6440   19.2026 N   0  0  0  0  0  0  0  0  0  0  0  0
   -5.4717   24.7753   16.7352 C   0  0  0  0  0  0  0  0  0  0  0  0
   -3.6034   24.9791   17.9422 N   0  0  0  0  0  0  0  0  0  0  0  0
   -4.8786   24.7792   17.9914 C   0  0  0  0  0  0  0  0  0  0  0  0
   -5.1197   23.4334   19.9507 C   0  0  0  0  0  0  0  0  0  0  0  0
   -5.8257   22.1565   19.4937 C   0  0  0  0  0  0  0  0  0  0  0  0
   -5.3524   20.9395   19.9671 C   0  0  0  0  0  0  0  0  0  0  0  0
   -5.9240   19.7492   19.5543 C   0  0  0  0  0  0  0  0  0  0  0  0
   -6.9775   19.7631   18.6608 C   0  0  0  0  0  0  0  0  0  0  0  0
   -7.4649   20.9684   18.1900 C   0  0  0  0  0  0  0  0  0  0  0  0
   -6.8992   22.1574   18.6119 C   0  0  0  0  0  0  0  0  0  0  0  0
  1  2  1  0
  2  3  1  0
  2  6  1  0
  3  5  2  0
  4  7  1  0
  4  8  1  0
  5  7  1  0
  6  7  2  0
  8  9  1  0
  9 10  2  0
  9 14  1  0
 10 11  1  0
 11 12  2  0
 12 13  1  0
 13 14  2  0
M  END
$$$$
