CypD-x0515-pandda-model
     RDKit          3D

 14 14  0  0  0  0  0  0  0  0999 V2000
   -5.4800   24.6550   18.5020 C   0  0  0  0  0  0  0  0  0  0  0  0
   -6.7380   23.9580   18.8860 N   0  0  0  0  0  0  0  0  0  0  0  0
   -7.9110   25.9030   18.9290 O   0  0  0  0  0  0  0  0  0  0  0  0
   -7.8440   24.7230   19.1820 C   0  0  0  0  0  0  0  0  0  0  0  0
   -4.1110   23.0390   20.7600 O   0  0  0  0  0  0  0  0  0  0  0  0
   -9.0310   24.0910   19.8740 C   0  0  0  0  0  0  0  0  0  0  0  0
   -5.7240   22.4860   22.0580 O   0  0  0  0  0  0  0  0  0  0  0  0
   -6.6910   22.5570   18.9190 C   0  0  0  0  0  0  0  0  0  0  0  0
   -7.4500   21.8530   17.9940 C   0  0  0  0  0  0  0  0  0  0  0  0
   -7.4380   20.4750   17.9550 C   0  0  0  0  0  0  0  0  0  0  0  0
   -6.6230   19.7730   18.8230 C   0  0  0  0  0  0  0  0  0  0  0  0
   -5.8680   20.4560   19.7540 C   0  0  0  0  0  0  0  0  0  0  0  0
   -5.9130   21.8470   19.8430 C   0  0  0  0  0  0  0  0  0  0  0  0
   -5.2220   22.5080   20.9170 C   0  0  0  0  0  0  0  0  0  0  0  0
  1  2  1  0
  2  4  1  0
  2  8  1  0
  3  4  2  0
  4  6  1  0
  5 14  1  0
  7 14  2  0
  8  9  2  0
  8 13  1  0
  9 10  1  0
 10 11  2  0
 11 12  1  0
 12 13  2  0
 13 14  1  0
M  CHG  1   5  -1
M  END
$$$$
