CypD-x0084-pandda-model
     RDKit          3D

 14 15  0  0  0  0  0  0  0  0999 V2000
   -6.6540   18.9400   18.8690 C   0  0  0  0  0  0  0  0  0  0  0  0
   -6.9410   20.3680   18.7430 N   0  0  0  0  0  0  0  0  0  0  0  0
   -7.7300   20.9620   17.8280 C   0  0  0  0  0  0  0  0  0  0  0  0
   -6.4500   23.5490   19.8530 N   0  0  0  0  0  0  0  0  0  0  0  0
   -7.6870   22.2850   18.0790 C   0  0  0  0  0  0  0  0  0  0  0  0
   -6.3980   21.2710   19.5910 N   0  0  0  0  0  0  0  0  0  0  0  0
   -6.8420   22.4080   19.1780 C   0  0  0  0  0  0  0  0  0  0  0  0
   -6.4100   24.7940   19.0520 C   0  0  0  0  0  0  0  0  0  0  0  0
   -5.2290   24.7880   18.0910 C   0  0  0  0  0  0  0  0  0  0  0  0
   -5.4450   24.7580   16.7210 C   0  0  0  0  0  0  0  0  0  0  0  0
   -4.3810   24.8280   15.8400 C   0  0  0  0  0  0  0  0  0  0  0  0
   -3.0870   24.9010   16.3220 C   0  0  0  0  0  0  0  0  0  0  0  0
   -2.8610   24.9050   17.6870 C   0  0  0  0  0  0  0  0  0  0  0  0
   -3.9270   24.8530   18.5670 C   0  0  0  0  0  0  0  0  0  0  0  0
  1  2  1  0
  2  3  1  0
  2  6  1  0
  3  5  2  0
  4  7  1  0
  4  8  1  0
  5  7  1  0
  6  7  2  0
  8  9  1  0
  9 10  2  0
  9 14  1  0
 10 11  1  0
 11 12  2  0
 12 13  1  0
 13 14  2  0
M  END
$$$$
