CypD-x0357-pandda-model
     RDKit          3D

 18 20  0  0  0  0  0  0  0  0999 V2000
   -4.9560   19.5870   21.0410 C   0  0  0  0  0  0  0  0  0  0  0  0
   -5.3400   19.6780   22.4770 N   0  0  2  0  0  0  0  0  0  0  0  0
   -4.3320   18.9550   23.2950 C   0  0  0  0  0  0  0  0  0  0  0  0
   -6.2400   19.2420   26.5700 N   0  0  0  0  0  0  0  0  0  0  0  0
   -4.5100   19.3160   24.7750 C   0  0  0  0  0  0  0  0  0  0  0  0
   -5.9760   19.5830   25.1500 C   0  0  1  0  0  0  0  0  0  0  0  0
   -6.9120   18.7990   24.2240 C   0  0  0  0  0  0  0  0  0  0  0  0
   -6.7200   19.1660   22.7480 C   0  0  0  0  0  0  0  0  0  0  0  0
   -6.7280   20.0880   27.5190 C   0  0  0  0  0  0  0  0  0  0  0  0
   -6.9550   19.4020   28.6700 C   0  0  0  0  0  0  0  0  0  0  0  0
   -6.5850   18.0750   28.4330 C   0  0  0  0  0  0  0  0  0  0  0  0
   -6.1520   18.0120   27.1480 C   0  0  0  0  0  0  0  0  0  0  0  0
   -5.7880   20.5380   20.1960 C   0  0  0  0  0  0  0  0  0  0  0  0
   -6.7530   20.0450   19.3300 C   0  0  0  0  0  0  0  0  0  0  0  0
   -7.4740   20.9100   18.5250 C   0  0  0  0  0  0  0  0  0  0  0  0
   -7.2420   22.2720   18.5810 C   0  0  0  0  0  0  0  0  0  0  0  0
   -6.2820   22.7700   19.4420 C   0  0  0  0  0  0  0  0  0  0  0  0
   -5.5550   21.9060   20.2430 C   0  0  0  0  0  0  0  0  0  0  0  0
  2  1  1  6
  1 13  1  0
  2  3  1  0
  2  8  1  0
  3  5  1  0
  6  4  1  1
  4  9  1  0
  4 12  1  0
  5  6  1  0
  6  7  1  0
  7  8  1  0
  9 10  2  0
 10 11  1  0
 11 12  2  0
 13 14  2  0
 13 18  1  0
 14 15  1  0
 15 16  2  0
 16 17  1  0
 17 18  2  0
M  CHG  1   2   1
M  END
$$$$
