CypD-x0422-pandda-model
     RDKit          3D

 14 14  0  0  0  0  0  0  0  0999 V2000
   -6.3771   19.0374   19.0100 C   0  0  0  0  0  0  0  0  0  0  0  0
   -5.6994   24.4905   20.4815 N   0  0  0  0  0  0  0  0  0  0  0  0
   -6.6081   24.3901   22.5422 O   0  0  0  0  0  0  0  0  0  0  0  0
   -6.1547   20.4950   19.3520 C   0  0  0  0  0  0  0  0  0  0  0  0
   -5.1543   27.1451   20.8647 O   0  0  0  0  0  0  0  0  0  0  0  0
   -6.8442   21.4935   18.6875 C   0  0  0  0  0  0  0  0  0  0  0  0
   -6.6797   22.8184   19.0472 C   0  0  0  0  0  0  0  0  0  0  0  0
   -7.4823   23.8784   18.3037 C   0  0  0  0  0  0  0  0  0  0  0  0
   -5.8086   23.1539   20.0837 C   0  0  0  0  0  0  0  0  0  0  0  0
   -6.1367   25.0533   21.6444 C   0  0  0  0  0  0  0  0  0  0  0  0
   -6.0458   26.5752   21.7867 C   0  0  0  0  0  0  0  0  0  0  0  0
   -5.0730   22.1499   20.7191 C   0  0  0  0  0  0  0  0  0  0  0  0
   -4.0463   22.4628   21.8012 C   0  0  0  0  0  0  0  0  0  0  0  0
   -5.2638   20.8285   20.3540 C   0  0  0  0  0  0  0  0  0  0  0  0
  1  4  1  0
  2  9  1  0
  2 10  1  0
  3 10  2  0
  4  6  2  0
  4 14  1  0
  5 11  1  0
  6  7  1  0
  7  8  1  0
  7  9  2  0
  9 12  1  0
 10 11  1  0
 12 13  1  0
 12 14  2  0
M  END
$$$$
