CypD-x0081-pandda-model
     RDKit          3D

 18 20  0  0  0  0  0  0  0  0999 V2000
   -9.9718   25.5978   20.6594 C   0  0  2  0  0  0  0  0  0  0  0  0
   -8.4040   24.9059   19.3705 N   0  0  2  0  0  0  0  0  0  0  0  0
  -11.1444   25.7533   19.9256 O   0  0  0  0  0  0  0  0  0  0  0  0
   -8.7479   26.2477   19.9561 C   0  0  0  0  0  0  0  0  0  0  0  0
   -9.2613   24.2406   20.4042 C   0  0  0  0  0  0  0  0  0  0  0  0
   -6.9701   24.5736   19.4460 C   0  0  0  0  0  0  0  0  0  0  0  0
   -6.2085   25.3588   18.3899 C   0  0  0  0  0  0  0  0  0  0  0  0
   -5.6262   26.5703   18.7448 C   0  0  0  0  0  0  0  0  0  0  0  0
   -4.9322   27.3177   17.8116 C   0  0  0  0  0  0  0  0  0  0  0  0
   -4.8032   26.8562   16.5159 C   0  0  0  0  0  0  0  0  0  0  0  0
   -5.3646   25.6472   16.1543 C   0  0  0  0  0  0  0  0  0  0  0  0
   -6.0715   24.9045   17.0838 C   0  0  0  0  0  0  0  0  0  0  0  0
   -6.7344   23.0608   19.3882 C   0  0  0  0  0  0  0  0  0  0  0  0
   -5.7476   22.5071   20.1964 C   0  0  0  0  0  0  0  0  0  0  0  0
   -5.5010   21.1448   20.1794 C   0  0  0  0  0  0  0  0  0  0  0  0
   -6.2370   20.3176   19.3516 C   0  0  0  0  0  0  0  0  0  0  0  0
   -7.2197   20.8554   18.5427 C   0  0  0  0  0  0  0  0  0  0  0  0
   -7.4655   22.2170   18.5586 C   0  0  0  0  0  0  0  0  0  0  0  0
  1  3  1  6
  1  4  1  0
  1  5  1  0
  2  4  1  0
  2  5  1  0
  2  6  1  1
  6  7  1  0
  6 13  1  0
  7  8  2  0
  7 12  1  0
  8  9  1  0
  9 10  2  0
 10 11  1  0
 11 12  2  0
 13 14  2  0
 13 18  1  0
 14 15  1  0
 15 16  2  0
 16 17  1  0
 17 18  2  0
M  CHG  1   2   1
M  END
$$$$
