CypD-x0588-pandda-model
     RDKit          3D

 13 13  0  0  0  0  0  0  0  0999 V2000
   -7.4639   27.6834   19.4381 C   0  0  0  0  0  0  0  0  0  0  0  0
   -6.5333   24.7862   19.8033 N   0  0  0  0  0  0  0  0  0  0  0  0
   -7.9205   25.0135   21.5706 O   0  0  0  0  0  0  0  0  0  0  0  0
   -6.9954   27.0185   20.7432 C   0  0  0  0  0  0  0  0  0  0  0  0
   -5.5624   22.7930   21.6384 O   0  0  0  0  0  0  0  0  0  0  0  0
   -7.1895   25.5120   20.7474 C   0  0  0  0  0  0  0  0  0  0  0  0
   -6.6015   23.4050   19.5617 C   0  0  0  0  0  0  0  0  0  0  0  0
   -7.1908   22.9660   18.3837 C   0  0  0  0  0  0  0  0  0  0  0  0
   -7.2767   21.6166   18.0909 C   0  0  0  0  0  0  0  0  0  0  0  0
   -6.7566   20.6774   18.9661 C   0  0  0  0  0  0  0  0  0  0  0  0
   -6.8518   19.1923   18.6835 C   0  0  0  0  0  0  0  0  0  0  0  0
   -6.1535   21.1001   20.1369 C   0  0  0  0  0  0  0  0  0  0  0  0
   -6.0951   22.4464   20.4477 C   0  0  0  0  0  0  0  0  0  0  0  0
  1  4  1  0
  2  6  1  0
  2  7  1  0
  3  6  2  0
  4  6  1  0
  5 13  1  0
  7  8  2  0
  7 13  1  0
  8  9  1  0
  9 10  2  0
 10 11  1  0
 10 12  1  0
 12 13  2  0
M  END
$$$$
