CypD-x0333-pandda-model
     RDKit          3D

 14 14  0  0  0  0  0  0  0  0999 V2000
   -7.9540   24.4915   18.7144 C   0  0  0  0  0  0  0  0  0  0  0  0
   -6.3944   22.8344   19.6080 N   0  0  0  0  0  0  0  0  0  0  0  0
   -7.1658   22.6610   17.4875 O   0  0  0  0  0  0  0  0  0  0  0  0
   -7.1331   23.2406   18.5435 C   0  0  0  0  0  0  0  0  0  0  0  0
   -5.0545   23.2617   23.7397 O   0  0  0  0  0  0  0  0  0  0  0  0
   -5.6264   21.6891   19.8403 C   0  0  0  0  0  0  0  0  0  0  0  0
   -6.3708   23.7761   22.1627 O   0  0  0  0  0  0  0  0  0  0  0  0
   -5.9084   20.4955   19.1857 C   0  0  0  0  0  0  0  0  0  0  0  0
   -5.1701   19.3589   19.4357 C   0  0  0  0  0  0  0  0  0  0  0  0
   -4.1578   19.3919   20.3759 C   0  0  0  0  0  0  0  0  0  0  0  0
   -3.8713   20.5698   21.0416 C   0  0  0  0  0  0  0  0  0  0  0  0
   -4.5856   21.7262   20.7726 C   0  0  0  0  0  0  0  0  0  0  0  0
   -4.2083   23.0188   21.5121 C   0  0  0  0  0  0  0  0  0  0  0  0
   -5.2454   23.4154   22.5332 C   0  0  0  0  0  0  0  0  0  0  0  0
  1  4  1  0
  2  4  1  0
  2  6  1  0
  3  4  2  0
  5 14  1  0
  6  8  2  0
  6 12  1  0
  7 14  2  0
  8  9  1  0
  9 10  2  0
 10 11  1  0
 11 12  2  0
 12 13  1  0
 13 14  1  0
M  CHG  1   5  -1
M  END
$$$$
