CypD-x0324-pandda-model
     RDKit          3D

 10 10  0  0  1  0  0  0  0  0999 V2000
   -6.0736   25.0073   19.0496 C   0  0  0  0  0  0  0  0  0  0  0  0
   -4.3601   22.5051   20.1969 N   0  0  0  0  0  0  0  0  0  0  0  0
   -6.3691   22.5223   21.1672 O   0  0  0  0  0  0  0  0  0  0  0  0
   -5.5871   24.6334   20.4599 C   0  0  0  0  0  0  0  0  0  0  0  0
   -5.0647   18.8786   19.6170 N   0  0  0  0  0  0  0  0  0  0  0  0
   -5.4716   23.1324   20.6415 C   0  0  0  0  0  0  0  0  0  0  0  0
   -4.1551   21.0438   20.0405 C   0  0  1  0  0  0  0  0  0  0  0  0
   -4.0683   20.2589   21.3349 C   0  0  0  0  0  0  0  0  0  0  0  0
   -4.2603   18.8145   20.8747 C   0  0  0  0  0  0  0  0  0  0  0  0
   -5.2409   20.3048   19.2505 C   0  0  0  0  0  0  0  0  0  0  0  0
  1  4  1  0
  2  6  1  0
  7  2  1  1
  3  6  2  0
  4  6  1  0
  5  9  1  0
  5 10  1  0
  7  8  1  0
  7 10  1  0
  8  9  1  0
M  CHG  1   5   1
M  END
$$$$
