CypD-x0886-pandda-model
     RDKit          3D

 13 14  0  0  0  0  0  0  0  0999 V2000
   -3.0510   20.9400   23.2930 C   0  0  0  0  0  0  0  0  0  0  0  0
   -4.4530   20.5630   21.3070 N   0  0  0  0  0  0  0  0  0  0  0  0
   -5.0390   22.0990   22.8530 O   0  0  0  0  0  0  0  0  0  0  0  0
   -4.2640   21.2580   22.4590 C   0  0  0  0  0  0  0  0  0  0  0  0
   -5.6240   23.2200   20.3070 N   0  0  0  0  0  0  0  0  0  0  0  0
   -5.4350   20.7010   20.3120 C   0  0  0  0  0  0  0  0  0  0  0  0
   -5.9300   19.5770   19.6850 C   0  0  0  0  0  0  0  0  0  0  0  0
   -6.8820   19.6660   18.6650 C   0  0  0  0  0  0  0  0  0  0  0  0
   -7.3410   20.8910   18.2440 C   0  0  0  0  0  0  0  0  0  0  0  0
   -6.8510   22.0480   18.8540 C   0  0  0  0  0  0  0  0  0  0  0  0
   -7.1040   23.4230   18.6650 C   0  0  0  0  0  0  0  0  0  0  0  0
   -6.3490   24.1040   19.5600 C   0  0  0  0  0  0  0  0  0  0  0  0
   -5.9200   21.9490   19.8830 C   0  0  0  0  0  0  0  0  0  0  0  0
  1  4  1  0
  2  4  1  0
  2  6  1  0
  3  4  2  0
  5 12  1  0
  5 13  1  0
  6  7  1  0
  6 13  2  0
  7  8  2  0
  8  9  1  0
  9 10  2  0
 10 11  1  0
 10 13  1  0
 11 12  2  0
M  END
$$$$
