CypD-x0722-pandda-model
     RDKit          3D

 18 19  0  0  0  0  0  0  0  0999 V2000
   -7.0014   18.0253   18.1974 C   0  0  0  0  0  0  0  0  0  0  0  0
   -6.3638   19.3327   18.4228 N   0  0  0  0  0  0  0  0  0  0  0  0
   -5.5506   24.1186   19.0323 O   0  0  0  0  0  0  0  0  0  0  0  0
   -5.8523   19.4424   19.8196 C   0  0  0  0  0  0  0  0  0  0  0  0
   -6.0116   21.9941   19.5635 N   0  0  0  0  0  0  0  0  0  0  0  0
   -5.9696   24.9111   21.7346 O   0  0  0  0  0  0  0  0  0  0  0  0
   -5.2311   20.8252   20.1089 C   0  0  0  0  0  0  0  0  0  0  0  0
   -6.6724   21.8008   18.2333 C   0  0  0  0  0  0  0  0  0  0  0  0
   -7.3148   20.4249   18.0757 C   0  0  0  0  0  0  0  0  0  0  0  0
   -5.6564   23.2770   19.8911 C   0  0  0  0  0  0  0  0  0  0  0  0
   -5.4273   23.6510   21.3531 C   0  0  0  0  0  0  0  0  0  0  0  0
   -7.2931   25.2006   21.7878 C   0  0  0  0  0  0  0  0  0  0  0  0
   -7.7067   25.9974   22.8452 C   0  0  0  0  0  0  0  0  0  0  0  0
   -9.0332   26.3628   22.9769 C   0  0  0  0  0  0  0  0  0  0  0  0
   -9.9686   25.9335   22.0499 C   0  0  0  0  0  0  0  0  0  0  0  0
  -11.4193   26.3660   22.1655 C   0  0  0  0  0  0  0  0  0  0  0  0
   -9.5595   25.1474   20.9854 C   0  0  0  0  0  0  0  0  0  0  0  0
   -8.2304   24.7871   20.8465 C   0  0  0  0  0  0  0  0  0  0  0  0
  1  2  1  0
  2  4  1  0
  2  9  1  0
  3 10  2  0
  4  7  1  0
  5  7  1  0
  5  8  1  0
  5 10  1  0
  6 11  1  0
  6 12  1  0
  8  9  1  0
 10 11  1  0
 12 13  2  0
 12 18  1  0
 13 14  1  0
 14 15  2  0
 15 16  1  0
 15 17  1  0
 17 18  2  0
M  CHG  1   2   1
M  END
$$$$
