CypD-x0240-pandda-model
     RDKit          3D

 15 17  0  0  1  0  0  0  0  0999 V2000
   -6.8730   23.8920   21.0020 N   0  0  0  0  0  0  0  0  0  0  0  0
   -5.9540   23.9900   23.3220 C   0  0  0  0  0  0  0  0  0  0  0  0
   -8.2090   24.2120   22.7830 O   0  0  0  0  0  0  0  0  0  0  0  0
   -7.0980   24.0480   22.3370 C   0  0  0  0  0  0  0  0  0  0  0  0
   -7.9920   24.0020   19.9910 C   0  0  0  0  0  0  0  0  0  0  0  0
   -7.5220   23.4600   18.6200 C   0  0  1  0  0  0  0  0  0  0  0  0
   -6.3240   24.3220   18.1680 C   0  0  0  0  0  0  0  0  0  0  0  0
   -5.2100   24.2760   19.2510 C   0  0  0  0  0  0  0  0  0  0  0  0
   -5.6070   23.3470   20.4190 C   0  0  2  0  0  0  0  0  0  0  0  0
   -5.9880   21.9960   19.8270 C   0  0  0  0  0  0  0  0  0  0  0  0
   -5.4330   20.7800   20.1880 C   0  0  0  0  0  0  0  0  0  0  0  0
   -5.8830   19.6220   19.5780 C   0  0  0  0  0  0  0  0  0  0  0  0
   -6.8780   19.6790   18.6170 C   0  0  0  0  0  0  0  0  0  0  0  0
   -7.4290   20.8970   18.2520 C   0  0  0  0  0  0  0  0  0  0  0  0
   -6.9870   22.0530   18.8690 C   0  0  0  0  0  0  0  0  0  0  0  0
  1  4  1  0
  1  5  1  0
  1  9  1  0
  2  4  1  0
  3  4  2  0
  6  5  1  1
  6  7  1  0
  6 15  1  0
  7  8  1  0
  9  8  1  6
  9 10  1  0
 10 11  2  0
 10 15  1  0
 11 12  1  0
 12 13  2  0
 13 14  1  0
 14 15  2  0
M  END
$$$$
