CypD-x0141-pandda-model
     RDKit          3D

 15 15  0  0  0  0  0  0  0  0999 V2000
  -11.2765   27.4823   19.3703 C   0  0  0  0  0  0  0  0  0  0  0  0
   -9.8288   27.1493   19.4215 N   0  0  0  0  0  0  0  0  0  0  0  0
   -9.9609   25.4730   20.9127 O   0  0  0  0  0  0  0  0  0  0  0  0
   -9.2823   26.1747   20.1989 C   0  0  0  0  0  0  0  0  0  0  0  0
   -7.3479   24.5261   20.2752 N   0  0  0  0  0  0  0  0  0  0  0  0
   -7.7618   25.9594   20.1983 C   0  0  0  0  0  0  0  0  0  0  0  0
   -7.5560   23.8651   18.9676 C   0  0  0  0  0  0  0  0  0  0  0  0
   -7.3311   22.3504   19.0806 C   0  0  0  0  0  0  0  0  0  0  0  0
   -6.1711   21.9893   20.0118 C   0  0  0  0  0  0  0  0  0  0  0  0
   -5.5465   22.9514   20.7098 C   0  0  0  0  0  0  0  0  0  0  0  0
   -5.9342   24.4178   20.6747 C   0  0  0  0  0  0  0  0  0  0  0  0
   -5.8415   20.4870   20.0479 C   0  0  0  0  0  0  0  0  0  0  0  0
   -4.8231   20.2017   20.8464 F   0  0  0  0  0  0  0  0  0  0  0  0
   -6.8713   19.7789   20.4824 F   0  0  0  0  0  0  0  0  0  0  0  0
   -5.5310   20.0155   18.8503 F   0  0  0  0  0  0  0  0  0  0  0  0
  1  2  1  0
  2  4  1  0
  3  4  2  0
  4  6  1  0
  5  6  1  0
  5  7  1  0
  5 11  1  0
  7  8  1  0
  8  9  1  0
  9 10  2  0
  9 12  1  0
 10 11  1  0
 12 13  1  0
 12 14  1  0
 12 15  1  0
M  END
$$$$
