CypD-x0150-pandda-model
     RDKit          3D

 15 16  0  0  1  0  0  0  0  0999 V2000
   -7.1010   27.1300   18.2920 C   0  0  0  0  0  0  0  0  0  0  0  0
   -7.9530   24.8980   18.9900 N   0  0  1  0  0  0  0  0  0  0  0  0
   -9.8580   28.0990   18.9100 O   0  0  0  0  0  0  0  0  0  0  0  0
   -8.3500   26.2670   18.5150 C   0  0  1  0  0  0  0  0  0  0  0  0
   -9.3220   26.9680   19.5070 C   0  0  2  0  0  0  0  0  0  0  0  0
  -10.5010   26.0860   19.9260 C   0  0  0  0  0  0  0  0  0  0  0  0
  -10.0220   24.6940   20.3530 C   0  0  0  0  0  0  0  0  0  0  0  0
   -9.1410   24.0480   19.2850 C   0  0  0  0  0  0  0  0  0  0  0  0
   -7.0400   24.1830   18.0450 C   0  0  0  0  0  0  0  0  0  0  0  0
   -6.5390   22.9050   18.7030 C   0  0  0  0  0  0  0  0  0  0  0  0
   -5.5080   22.9580   19.6300 C   0  0  0  0  0  0  0  0  0  0  0  0
   -5.0340   21.7980   20.2190 C   0  0  0  0  0  0  0  0  0  0  0  0
   -5.5900   20.5760   19.8880 C   0  0  0  0  0  0  0  0  0  0  0  0
   -6.6210   20.5150   18.9680 C   0  0  0  0  0  0  0  0  0  0  0  0
   -7.0930   21.6750   18.3750 C   0  0  0  0  0  0  0  0  0  0  0  0
  4  1  1  1
  2  4  1  0
  2  8  1  0
  2  9  1  6
  5  3  1  6
  4  5  1  0
  5  6  1  0
  6  7  1  0
  7  8  1  0
  9 10  1  0
 10 11  2  0
 10 15  1  0
 11 12  1  0
 12 13  2  0
 13 14  1  0
 14 15  2  0
M  CHG  1   2   1
M  END
$$$$
