CypD-x0173-pandda-model
     RDKit          3D

 18 19  0  0  0  0  0  0  0  0999 V2000
   -6.0250   25.7130   18.4400 C   0  0  0  0  0  0  0  0  0  0  0  0
   -4.3530   23.1970   21.1280 N   0  0  0  0  0  0  0  0  0  0  0  0
   -5.8780   24.8660   19.5660 O   0  0  0  0  0  0  0  0  0  0  0  0
   -6.0360   23.5230   19.4010 C   0  0  0  0  0  0  0  0  0  0  0  0
   -2.9920   23.4680   22.9730 N   0  0  0  0  0  0  0  0  0  0  0  0
   -4.4510   21.7990   22.9090 O   0  0  0  0  0  0  0  0  0  0  0  0
   -6.9410   23.0020   18.4850 C   0  0  0  0  0  0  0  0  0  0  0  0
   -2.4890   23.2000   24.2740 N   0  0  0  0  0  0  0  0  0  0  0  0
   -7.0730   21.6320   18.3410 C   0  0  0  0  0  0  0  0  0  0  0  0
   -2.0060   23.3930   26.3870 N   0  0  0  0  0  0  0  0  0  0  0  0
   -6.2980   20.7770   19.1050 C   0  0  0  0  0  0  0  0  0  0  0  0
   -1.4280   22.2810   25.9350 N   0  0  0  0  0  0  0  0  0  0  0  0
   -6.4130   19.2740   18.9540 C   0  0  0  0  0  0  0  0  0  0  0  0
   -5.4000   21.2990   20.0200 C   0  0  0  0  0  0  0  0  0  0  0  0
   -5.2650   22.6680   20.1970 C   0  0  0  0  0  0  0  0  0  0  0  0
   -3.9540   22.7660   22.3570 C   0  0  0  0  0  0  0  0  0  0  0  0
   -2.6370   23.9170   25.3840 C   0  0  0  0  0  0  0  0  0  0  0  0
   -1.7320   22.1870   24.6790 C   0  0  0  0  0  0  0  0  0  0  0  0
  1  3  1  0
  2 15  1  0
  2 16  1  0
  3  4  1  0
  4  7  2  0
  4 15  1  0
  5  8  1  0
  5 16  1  0
  6 16  2  0
  7  9  1  0
  8 17  1  0
  8 18  1  0
  9 11  2  0
 10 12  1  0
 10 17  2  0
 11 13  1  0
 11 14  1  0
 12 18  2  0
 14 15  2  0
M  END
$$$$
