CypD-x0306-pandda-model
     RDKit          3D

 17 18  0  0  1  0  0  0  0  0999 V2000
   -6.3470   19.2590   19.3150 C   0  0  0  0  0  0  0  0  0  0  0  0
   -7.2390   26.9340   19.4160 N   0  0  0  0  0  0  0  0  0  0  0  0
   -7.3420   25.2840   20.9380 O   0  0  0  0  0  0  0  0  0  0  0  0
   -6.1780   20.7670   19.3250 C   0  0  0  0  0  0  0  0  0  0  0  0
  -10.5960   28.4670   19.1930 O   0  0  0  0  0  0  0  0  0  0  0  0
   -6.9250   21.5660   18.4740 C   0  0  0  0  0  0  0  0  0  0  0  0
   -6.7510   22.9370   18.4730 C   0  0  0  0  0  0  0  0  0  0  0  0
   -5.8300   23.5260   19.3250 C   0  0  0  0  0  0  0  0  0  0  0  0
   -5.6460   25.0400   19.3060 C   0  0  0  0  0  0  0  0  0  0  0  0
   -6.8160   25.7630   19.9560 C   0  0  0  0  0  0  0  0  0  0  0  0
   -8.4260   27.7170   19.8620 C   0  0  0  0  0  0  0  0  0  0  0  0
   -9.4960   27.7410   18.7640 C   0  0  2  0  0  0  0  0  0  0  0  0
   -9.0730   28.4390   17.4760 C   0  0  0  0  0  0  0  0  0  0  0  0
  -10.3830   28.9870   16.9280 C   0  0  0  0  0  0  0  0  0  0  0  0
  -11.3560   28.8660   18.0990 C   0  0  0  0  0  0  0  0  0  0  0  0
   -5.0880   22.7280   20.1820 C   0  0  0  0  0  0  0  0  0  0  0  0
   -5.2620   21.3540   20.1810 C   0  0  0  0  0  0  0  0  0  0  0  0
  1  4  1  0
  2 10  1  0
  2 11  1  0
  3 10  2  0
  4  6  2  0
  4 17  1  0
  5 12  1  0
  5 15  1  0
  6  7  1  0
  7  8  2  0
  8  9  1  0
  8 16  1  0
  9 10  1  0
 12 11  1  1
 12 13  1  0
 13 14  1  0
 14 15  1  0
 16 17  2  0
M  END
$$$$
