CypD-x0378-pandda-model
     RDKit          3D

 15 16  0  0  0  0  0  0  0  0999 V2000
  -12.1920   22.7940   23.0030 C   0  0  0  0  0  0  0  0  0  0  0  0
  -12.6850   24.6210   21.4690 N   0  0  0  0  0  0  0  0  0  0  0  0
  -12.0620   23.2870   21.5670 C   0  0  0  0  0  0  0  0  0  0  0  0
   -9.1160   24.9000   20.5480 N   0  0  0  0  0  0  0  0  0  0  0  0
  -11.7840   25.7670   21.1760 C   0  0  0  0  0  0  0  0  0  0  0  0
   -6.5100   21.9890   19.1670 N   0  0  0  0  0  0  0  0  0  0  0  0
  -10.6710   25.9440   22.2270 C   0  0  0  0  0  0  0  0  0  0  0  0
   -9.3870   25.1260   21.9990 C   0  0  0  0  0  0  0  0  0  0  0  0
   -9.7620   25.8700   19.6230 C   0  0  0  0  0  0  0  0  0  0  0  0
  -11.2670   25.6670   19.7340 C   0  0  0  0  0  0  0  0  0  0  0  0
   -8.2460   23.9560   20.0890 C   0  0  0  0  0  0  0  0  0  0  0  0
   -7.0540   23.6480   20.7630 C   0  0  0  0  0  0  0  0  0  0  0  0
   -6.2040   22.6790   20.2910 C   0  0  0  0  0  0  0  0  0  0  0  0
   -7.6270   22.2770   18.4600 C   0  0  0  0  0  0  0  0  0  0  0  0
   -8.4910   23.2430   18.9060 C   0  0  0  0  0  0  0  0  0  0  0  0
  1  3  1  0
  2  3  1  0
  2  5  1  0
  4  8  1  0
  4  9  1  0
  4 11  1  0
  5  7  1  0
  5 10  1  0
  6 13  2  0
  6 14  1  0
  7  8  1  0
  9 10  1  0
 11 12  2  0
 11 15  1  0
 12 13  1  0
 14 15  2  0
M  CHG  2   2   1   6   1
M  END
$$$$
