CypD-x0602-pandda-model
     RDKit          3D

 13 14  0  0  1  0  0  0  0  0999 V2000
   -7.5460   25.0540   19.3840 C   0  0  0  0  0  0  0  0  0  0  0  0
   -6.4910   24.0760   19.8100 N   0  0  0  0  0  0  0  0  0  0  0  0
   -9.8000   25.7780   19.7740 O   0  0  0  0  0  0  0  0  0  0  0  0
   -6.3310   22.7970   19.3940 C   0  0  0  0  0  0  0  0  0  0  0  0
   -5.9970   20.1580   18.6310 N   0  0  0  0  0  0  0  0  0  0  0  0
   -7.1270   22.2220   18.3950 C   0  0  0  0  0  0  0  0  0  0  0  0
   -6.9540   20.9130   18.0390 C   0  0  0  0  0  0  0  0  0  0  0  0
   -5.2100   20.6670   19.6050 C   0  0  0  0  0  0  0  0  0  0  0  0
   -5.3600   21.9770   19.9860 C   0  0  0  0  0  0  0  0  0  0  0  0
   -8.9200   24.7240   19.9940 C   0  0  2  0  0  0  0  0  0  0  0  0
   -8.9310   24.5450   21.5050 C   0  0  0  0  0  0  0  0  0  0  0  0
  -10.3730   24.8580   21.8550 C   0  0  0  0  0  0  0  0  0  0  0  0
  -10.8220   25.7800   20.7240 C   0  0  0  0  0  0  0  0  0  0  0  0
  1  2  1  0
 10  1  1  1
  2  4  1  0
  3 10  1  0
  3 13  1  0
  4  6  2  0
  4  9  1  0
  5  7  2  0
  5  8  1  0
  6  7  1  0
  8  9  2  0
 10 11  1  0
 11 12  1  0
 12 13  1  0
M  CHG  1   5   1
M  END
$$$$
