CypD-x0543-pandda-model
     RDKit          3D

  9  9  0  0  0  0  0  0  0  0999 V2000
   -6.3890   19.5890   19.4540 C   0  0  0  0  0  0  0  0  0  0  0  0
   -4.8780   20.9920   22.1680 O   0  0  0  0  0  0  0  0  0  0  0  0
   -6.6820   23.6170   20.0040 S   0  0  0  0  0  0  0  0  0  0  0  0
   -6.5810   21.0980   19.4590 C   0  0  0  0  0  0  0  0  0  0  0  0
   -6.5690   22.1530   22.7800 O   0  0  0  0  0  0  0  0  0  0  0  0
   -7.1750   21.6970   18.1910 C   0  0  0  0  0  0  0  0  0  0  0  0
   -7.1820   23.2300   18.2780 C   0  0  0  0  0  0  0  0  0  0  0  0
   -6.3110   21.9260   20.4830 C   0  0  0  0  0  0  0  0  0  0  0  0
   -5.8600   21.7030   21.8520 C   0  0  0  0  0  0  0  0  0  0  0  0
  1  4  1  0
  2  9  1  0
  3  7  1  0
  3  8  1  0
  4  6  1  0
  4  8  2  0
  5  9  2  0
  6  7  1  0
  8  9  1  0
M  CHG  1   2  -1
M  END
$$$$
