CypD-x0398-pandda-model
     RDKit          3D

 13 14  0  0  1  0  0  0  0  0999 V2000
   -1.8980   21.9590   24.4350 C   0  0  0  0  0  0  0  0  0  0  0  0
   -2.7990   21.4560   23.3610 N   0  0  0  0  0  0  0  0  0  0  0  0
   -5.3390   19.0430   20.6190 O   0  0  0  0  0  0  0  0  0  0  0  0
   -3.7380   20.3710   23.7730 C   0  0  0  0  0  0  0  0  0  0  0  0
   -5.1980   21.3780   22.1450 O   0  0  0  0  0  0  0  0  0  0  0  0
   -4.8110   20.1200   22.7010 C   0  0  1  0  0  0  0  0  0  0  0  0
   -4.3200   19.1860   21.5870 C   0  0  0  0  0  0  0  0  0  0  0  0
   -5.9210   20.1870   20.1900 C   0  0  0  0  0  0  0  0  0  0  0  0
   -6.6230   20.1760   18.9990 C   0  0  0  0  0  0  0  0  0  0  0  0
   -7.1700   21.3520   18.5110 C   0  0  0  0  0  0  0  0  0  0  0  0
   -7.0140   22.5360   19.2140 C   0  0  0  0  0  0  0  0  0  0  0  0
   -6.3350   22.5450   20.4240 C   0  0  0  0  0  0  0  0  0  0  0  0
   -5.8070   21.3670   20.9280 C   0  0  0  0  0  0  0  0  0  0  0  0
  1  2  1  0
  2  4  1  0
  3  7  1  0
  3  8  1  0
  6  4  1  1
  5  6  1  0
  5 13  1  0
  6  7  1  0
  8  9  2  0
  8 13  1  0
  9 10  1  0
 10 11  2  0
 11 12  1  0
 12 13  2  0
M  CHG  1   2   1
M  END
$$$$
