CypD-x0470-pandda-model
     RDKit          3D

 14 14  0  0  0  0  0  0  0  0999 V2000
   -6.8200   25.9650   18.0370 C   0  0  0  0  0  0  0  0  0  0  0  0
   -7.0230   23.5110   18.2750 N   0  0  0  0  0  0  0  0  0  0  0  0
   -5.0020   24.5240   18.2420 O   0  0  0  0  0  0  0  0  0  0  0  0
   -6.2030   24.5990   18.1870 C   0  0  0  0  0  0  0  0  0  0  0  0
   -4.4990   20.6360   21.2790 N   0  0  0  0  0  0  0  0  0  0  0  0
   -5.0040   22.2650   22.7460 O   0  0  0  0  0  0  0  0  0  0  0  0
   -6.6920   22.2340   18.7510 C   0  0  0  0  0  0  0  0  0  0  0  0
   -3.0080   21.3490   22.8960 N   0  0  0  0  0  0  0  0  0  0  0  0
   -7.2810   21.1060   18.1950 C   0  0  0  0  0  0  0  0  0  0  0  0
   -6.9580   19.8420   18.6590 C   0  0  0  0  0  0  0  0  0  0  0  0
   -6.0420   19.6940   19.6840 C   0  0  0  0  0  0  0  0  0  0  0  0
   -5.4460   20.8050   20.2640 C   0  0  0  0  0  0  0  0  0  0  0  0
   -4.2040   21.4540   22.3180 C   0  0  0  0  0  0  0  0  0  0  0  0
   -5.7850   22.0650   19.7890 C   0  0  0  0  0  0  0  0  0  0  0  0
  1  4  1  0
  2  4  1  0
  2  7  1  0
  3  4  2  0
  5 12  1  0
  5 13  1  0
  6 13  2  0
  7  9  2  0
  7 14  1  0
  8 13  1  0
  9 10  1  0
 10 11  2  0
 11 12  1  0
 12 14  2  0
M  END
$$$$
