CypD-x0498-pandda-model
     RDKit          3D

 13 13  0  0  1  0  0  0  0  0999 V2000
   -3.1206   21.5447   21.7688 C   0  0  0  0  0  0  0  0  0  0  0  0
   -4.5250   21.4468   19.8473 O   0  0  0  0  0  0  0  0  0  0  0  0
   -4.4540   21.0313   21.2097 C   0  0  2  0  0  0  0  0  0  0  0  0
   -6.4135   20.6852   22.5895 O   0  0  0  0  0  0  0  0  0  0  0  0
   -5.6610   21.1798   19.1560 C   0  0  0  0  0  0  0  0  0  0  0  0
   -5.9667   22.7100   22.1103 O   0  0  0  0  0  0  0  0  0  0  0  0
   -6.3755   22.2463   18.6345 C   0  0  0  0  0  0  0  0  0  0  0  0
   -7.5277   22.0204   17.8979 C   0  0  0  0  0  0  0  0  0  0  0  0
   -7.9790   20.7271   17.6816 C   0  0  0  0  0  0  0  0  0  0  0  0
   -7.2864   19.6502   18.2087 C   0  0  0  0  0  0  0  0  0  0  0  0
   -6.1316   19.8915   18.9247 C   0  0  0  0  0  0  0  0  0  0  0  0
   -5.6749   21.5066   22.0169 C   0  0  0  0  0  0  0  0  0  0  0  0
   -5.4600   18.8628   19.3664 F   0  0  0  0  0  0  0  0  0  0  0  0
  3  1  1  1
  2  3  1  0
  2  5  1  0
  3 12  1  0
  4 12  1  0
  5  7  2  0
  5 11  1  0
  6 12  2  0
  7  8  1  0
  8  9  2  0
  9 10  1  0
 10 11  2  0
 11 13  1  0
M  CHG  1   4  -1
M  END
$$$$
