CypD-x0099-pandda-model
     RDKit          3D

 15 16  0  0  0  0  0  0  0  0999 V2000
   -3.5050   23.3240   24.5520 C   0  0  0  0  0  0  0  0  0  0  0  0
   -3.2330   22.2840   23.5200 N   0  0  0  0  0  0  0  0  0  0  0  0
   -5.3800   21.6330   23.3310 O   0  0  0  0  0  0  0  0  0  0  0  0
   -1.7760   22.0420   23.2870 C   0  0  0  0  0  0  0  0  0  0  0  0
   -4.9670   20.4690   20.8450 N   0  0  0  0  0  0  0  0  0  0  0  0
   -4.2280   21.5100   22.9680 C   0  0  0  0  0  0  0  0  0  0  0  0
   -5.5100   19.3040   20.4200 N   0  0  0  0  0  0  0  0  0  0  0  0
   -3.9120   20.4960   21.8760 C   0  0  0  0  0  0  0  0  0  0  0  0
   -6.3340   19.6320   19.4810 C   0  0  0  0  0  0  0  0  0  0  0  0
   -6.3700   21.0130   19.2420 C   0  0  0  0  0  0  0  0  0  0  0  0
   -7.0680   21.8620   18.3720 C   0  0  0  0  0  0  0  0  0  0  0  0
   -6.8270   23.2140   18.4140 C   0  0  0  0  0  0  0  0  0  0  0  0
   -5.8900   23.7410   19.3140 C   0  0  0  0  0  0  0  0  0  0  0  0
   -5.2040   22.9150   20.1740 C   0  0  0  0  0  0  0  0  0  0  0  0
   -5.4600   21.5370   20.1370 C   0  0  0  0  0  0  0  0  0  0  0  0
  1  2  1  0
  2  4  1  0
  2  6  1  0
  3  6  2  0
  5  7  1  0
  5  8  1  0
  5 15  1  0
  6  8  1  0
  7  9  2  0
  9 10  1  0
 10 11  1  0
 10 15  2  0
 11 12  2  0
 12 13  1  0
 13 14  2  0
 14 15  1  0
M  END
$$$$
