CypD-x0294-pandda-model
     RDKit          3D

 14 14  0  0  0  0  0  0  0  0999 V2000
   -6.9034   19.2550   18.5428 C   0  0  0  0  0  0  0  0  0  0  0  0
   -2.8201   17.3848   21.9006 N   0  0  0  0  0  0  0  0  0  0  0  0
   -6.3429   20.4737   18.9923 O   0  0  0  0  0  0  0  0  0  0  0  0
   -5.4336   20.5326   20.0070 C   0  0  0  0  0  0  0  0  0  0  0  0
   -3.3796   22.9185   21.8546 O   0  0  0  0  0  0  0  0  0  0  0  0
   -5.1309   19.3877   20.7413 C   0  0  0  0  0  0  0  0  0  0  0  0
   -4.9887   22.9469   19.6880 O   0  0  0  0  0  0  0  0  0  0  0  0
   -4.2150   19.3995   21.7788 C   0  0  0  0  0  0  0  0  0  0  0  0
   -3.9312   18.1124   22.5413 C   0  0  0  0  0  0  0  0  0  0  0  0
   -3.6118   20.5998   22.1144 C   0  0  0  0  0  0  0  0  0  0  0  0
   -3.9142   21.7560   21.4109 C   0  0  0  0  0  0  0  0  0  0  0  0
   -2.1456   23.3117   21.2955 C   0  0  0  0  0  0  0  0  0  0  0  0
   -4.8045   21.7453   20.3344 C   0  0  0  0  0  0  0  0  0  0  0  0
   -6.1344   23.2336   18.9066 C   0  0  0  0  0  0  0  0  0  0  0  0
  1  3  1  0
  2  9  1  0
  3  4  1  0
  4  6  2  0
  4 13  1  0
  5 11  1  0
  5 12  1  0
  6  8  1  0
  7 13  1  0
  7 14  1  0
  8  9  1  0
  8 10  2  0
 10 11  1  0
 11 13  2  0
M  CHG  1   2   1
M  END
$$$$
