CypD-x0417-pandda-model
     RDKit          3D

 13 13  0  0  0  0  0  0  0  0999 V2000
   -1.9537   21.1704   23.4102 C   0  0  0  0  0  0  0  0  0  0  0  0
   -4.2900   20.4438   21.3490 N   0  0  0  0  0  0  0  0  0  0  0  0
   -5.2385   21.5383   23.0784 O   0  0  0  0  0  0  0  0  0  0  0  0
   -3.2575   20.3812   23.6024 C   0  0  0  0  0  0  0  0  0  0  0  0
   -6.8413   23.6169   18.6271 N   0  0  0  0  0  0  0  0  0  0  0  0
   -4.3496   20.8359   22.6526 C   0  0  0  0  0  0  0  0  0  0  0  0
   -5.1861   20.7773   20.3216 C   0  0  0  0  0  0  0  0  0  0  0  0
   -5.8405   19.7297   19.6899 C   0  0  0  0  0  0  0  0  0  0  0  0
   -6.7841   19.9662   18.7122 C   0  0  0  0  0  0  0  0  0  0  0  0
   -7.0902   21.2645   18.3615 C   0  0  0  0  0  0  0  0  0  0  0  0
   -6.4494   22.3323   18.9733 C   0  0  0  0  0  0  0  0  0  0  0  0
   -5.4569   22.0922   19.9258 C   0  0  0  0  0  0  0  0  0  0  0  0
   -4.6719   23.2744   20.5011 C   0  0  0  0  0  0  0  0  0  0  0  0
  1  4  1  0
  2  6  1  0
  2  7  1  0
  3  6  2  0
  4  6  1  0
  5 11  1  0
  7  8  2  0
  7 12  1  0
  8  9  1  0
  9 10  2  0
 10 11  1  0
 11 12  2  0
 12 13  1  0
M  END
$$$$
