CypD-x0610-pandda-model
     RDKit          3D

 17 18  0  0  0  0  0  0  0  0999 V2000
   -6.3590   21.3740   19.3560 C   0  0  0  0  0  0  0  0  0  0  0  0
   -5.5890   26.2970   17.0990 N   0  0  0  0  0  0  0  0  0  0  0  0
   -7.5500   26.8750   17.9530 O   0  0  0  0  0  0  0  0  0  0  0  0
   -7.2420   22.0920   18.5730 C   0  0  0  0  0  0  0  0  0  0  0  0
   -3.8890   25.7470   15.7250 N   0  0  0  0  0  0  0  0  0  0  0  0
   -7.2170   23.4750   18.6210 C   0  0  0  0  0  0  0  0  0  0  0  0
   -3.6370   25.4780   18.0630 N   0  0  0  0  0  0  0  0  0  0  0  0
   -6.3020   24.1350   19.4330 C   0  0  0  0  0  0  0  0  0  0  0  0
   -6.2620   25.6640   19.4740 C   0  0  0  0  0  0  0  0  0  0  0  0
   -6.4900   26.3240   18.1170 C   0  0  0  0  0  0  0  0  0  0  0  0
   -4.3210   25.8120   16.9720 C   0  0  0  0  0  0  0  0  0  0  0  0
   -2.6600   25.3210   15.5550 C   0  0  0  0  0  0  0  0  0  0  0  0
   -1.8650   24.9540   16.6130 C   0  0  0  0  0  0  0  0  0  0  0  0
   -2.4110   25.0520   17.8690 C   0  0  0  0  0  0  0  0  0  0  0  0
   -5.4150   23.3950   20.2050 C   0  0  0  0  0  0  0  0  0  0  0  0
   -5.4450   22.0100   20.1740 C   0  0  0  0  0  0  0  0  0  0  0  0
   -6.4020   19.6320   19.3100 Cl  0  0  0  0  0  0  0  0  0  0  0  0
  1  4  2  0
  1 16  1  0
  1 17  1  0
  2 10  1  0
  2 11  1  0
  3 10  2  0
  4  6  1  0
  5 11  2  0
  5 12  1  0
  6  8  2  0
  7 11  1  0
  7 14  2  0
  8  9  1  0
  8 15  1  0
  9 10  1  0
 12 13  2  0
 13 14  1  0
 15 16  2  0
M  END
$$$$
