CypD-x0355-pandda-model
     RDKit          3D

 16 17  0  0  0  0  0  0  0  0999 V2000
   -8.0601   27.8259   17.5286 C   0  0  0  0  0  0  0  0  0  0  0  0
   -7.2049   28.4794   16.7361 N   0  0  0  0  0  0  0  0  0  0  0  0
   -9.2316   28.1350   17.4681 O   0  0  0  0  0  0  0  0  0  0  0  0
   -6.1909   26.4961   18.6214 C   0  0  0  0  0  0  0  0  0  0  0  0
   -7.6249   26.8056   18.3293 N   0  0  0  0  0  0  0  0  0  0  0  0
   -5.8992   24.9916   18.4689 C   0  0  0  0  0  0  0  0  0  0  0  0
   -6.8391   24.1683   19.2922 N   0  0  0  0  0  0  0  0  0  0  0  0
   -8.2682   24.4590   18.9432 C   0  0  0  0  0  0  0  0  0  0  0  0
   -8.5875   25.9572   19.0996 C   0  0  0  0  0  0  0  0  0  0  0  0
   -6.4431   22.8609   19.5532 C   0  0  0  0  0  0  0  0  0  0  0  0
   -6.9746   21.7682   18.8680 C   0  0  0  0  0  0  0  0  0  0  0  0
   -6.5791   20.4786   19.1827 C   0  0  0  0  0  0  0  0  0  0  0  0
   -5.6379   20.3035   20.1787 C   0  0  0  0  0  0  0  0  0  0  0  0
   -5.0695   21.3622   20.8575 C   0  0  0  0  0  0  0  0  0  0  0  0
   -5.4819   22.6431   20.5374 C   0  0  0  0  0  0  0  0  0  0  0  0
   -5.2775   19.0909   20.5010 F   0  0  0  0  0  0  0  0  0  0  0  0
  1  2  1  0
  1  3  2  0
  1  5  1  0
  4  5  1  0
  4  6  1  0
  5  9  1  0
  6  7  1  0
  7  8  1  0
  7 10  1  0
  8  9  1  0
 10 11  2  0
 10 15  1  0
 11 12  1  0
 12 13  2  0
 13 14  1  0
 13 16  1  0
 14 15  2  0
M  END
$$$$
