CypD-x0355-pandda-model
     RDKit          3D

 16 17  0  0  0  0  0  0  0  0999 V2000
   -7.8270   27.8330   17.5650 C   0  0  0  0  0  0  0  0  0  0  0  0
   -7.0980   28.4140   16.6050 N   0  0  0  0  0  0  0  0  0  0  0  0
   -8.8690   28.3670   17.8840 O   0  0  0  0  0  0  0  0  0  0  0  0
   -6.0650   26.0600   17.9320 C   0  0  0  0  0  0  0  0  0  0  0  0
   -7.4260   26.6590   18.1350 N   0  0  0  0  0  0  0  0  0  0  0  0
   -5.6560   25.0850   19.0560 C   0  0  0  0  0  0  0  0  0  0  0  0
   -6.7000   24.0420   19.3430 N   0  0  0  0  0  0  0  0  0  0  0  0
   -8.1090   24.4030   18.9760 C   0  0  0  0  0  0  0  0  0  0  0  0
   -8.3480   25.9160   19.0470 C   0  0  0  0  0  0  0  0  0  0  0  0
   -6.3370   22.7090   19.5330 C   0  0  0  0  0  0  0  0  0  0  0  0
   -6.9860   21.6750   18.8530 C   0  0  0  0  0  0  0  0  0  0  0  0
   -6.6740   20.3530   19.1120 C   0  0  0  0  0  0  0  0  0  0  0  0
   -5.6910   20.0810   20.0400 C   0  0  0  0  0  0  0  0  0  0  0  0
   -4.9970   21.0740   20.7030 C   0  0  0  0  0  0  0  0  0  0  0  0
   -5.3300   22.3910   20.4440 C   0  0  0  0  0  0  0  0  0  0  0  0
   -5.4140   18.8360   20.3040 F   0  0  0  0  0  0  0  0  0  0  0  0
  1  2  1  0
  1  3  2  0
  1  5  1  0
  4  5  1  0
  4  6  1  0
  5  9  1  0
  6  7  1  0
  7  8  1  0
  7 10  1  0
  8  9  1  0
 10 11  2  0
 10 15  1  0
 11 12  1  0
 12 13  2  0
 13 14  1  0
 13 16  1  0
 14 15  2  0
M  END
$$$$
