CypD-x0974-pandda-model
     RDKit          3D

 14 15  0  0  1  0  0  0  0  0999 V2000
   -9.0240   25.3840   20.9670 C   0  0  0  0  0  0  0  0  0  0  0  0
   -6.9490   24.7520   19.7590 N   0  0  0  0  0  0  0  0  0  0  0  0
   -7.4370   23.8690   21.7760 O   0  0  0  0  0  0  0  0  0  0  0  0
   -7.7320   24.6080   20.8630 C   0  0  0  0  0  0  0  0  0  0  0  0
   -7.0990   25.7910   18.7170 C   0  0  0  0  0  0  0  0  0  0  0  0
   -5.6980   25.9520   18.1450 C   0  0  0  0  0  0  0  0  0  0  0  0
   -5.0760   24.5660   18.2900 C   0  0  0  0  0  0  0  0  0  0  0  0
   -5.7240   23.9530   19.5350 C   0  0  2  0  0  0  0  0  0  0  0  0
   -6.0490   22.4760   19.3260 C   0  0  0  0  0  0  0  0  0  0  0  0
   -5.3080   21.5010   19.9800 C   0  0  0  0  0  0  0  0  0  0  0  0
   -5.5780   20.1590   19.7740 C   0  0  0  0  0  0  0  0  0  0  0  0
   -6.5920   19.7820   18.9120 C   0  0  0  0  0  0  0  0  0  0  0  0
   -7.3410   20.7470   18.2640 C   0  0  0  0  0  0  0  0  0  0  0  0
   -7.0710   22.0870   18.4690 C   0  0  0  0  0  0  0  0  0  0  0  0
  1  4  1  0
  2  4  1  0
  2  5  1  0
  2  8  1  0
  3  4  2  0
  5  6  1  0
  6  7  1  0
  7  8  1  0
  8  9  1  6
  9 10  2  0
  9 14  1  0
 10 11  1  0
 11 12  2  0
 12 13  1  0
 13 14  2  0
M  END
$$$$
