CypD-x0722-pandda-model
     RDKit          3D

 18 19  0  0  0  0  0  0  0  0999 V2000
   -7.2000   18.3670   17.9970 C   0  0  0  0  0  0  0  0  0  0  0  0
   -6.4710   19.6230   18.3170 N   0  0  0  0  0  0  0  0  0  0  0  0
   -6.5240   23.0010   21.8310 O   0  0  0  0  0  0  0  0  0  0  0  0
   -7.2970   20.8110   17.9060 C   0  0  0  0  0  0  0  0  0  0  0  0
   -6.3020   22.1590   19.7710 N   0  0  0  0  0  0  0  0  0  0  0  0
   -5.5880   25.3440   20.0330 O   0  0  0  0  0  0  0  0  0  0  0  0
   -6.7020   22.1670   18.3320 C   0  0  0  0  0  0  0  0  0  0  0  0
   -5.4570   20.9850   20.1790 C   0  0  0  0  0  0  0  0  0  0  0  0
   -6.0760   19.6370   19.7610 C   0  0  0  0  0  0  0  0  0  0  0  0
   -6.5230   23.2020   20.6360 C   0  0  0  0  0  0  0  0  0  0  0  0
   -6.8040   24.6290   20.1580 C   0  0  0  0  0  0  0  0  0  0  0  0
   -4.8700   25.3020   18.8880 C   0  0  0  0  0  0  0  0  0  0  0  0
   -5.4420   25.5310   17.6430 C   0  0  0  0  0  0  0  0  0  0  0  0
   -4.6480   25.5440   16.5100 C   0  0  0  0  0  0  0  0  0  0  0  0
   -3.2800   25.3390   16.6120 C   0  0  0  0  0  0  0  0  0  0  0  0
   -2.3890   25.4150   15.3840 C   0  0  0  0  0  0  0  0  0  0  0  0
   -2.7160   25.0970   17.8550 C   0  0  0  0  0  0  0  0  0  0  0  0
   -3.5080   25.0790   18.9890 C   0  0  0  0  0  0  0  0  0  0  0  0
  1  2  1  0
  2  4  1  0
  2  9  1  0
  3 10  2  0
  4  7  1  0
  5  7  1  0
  5  8  1  0
  5 10  1  0
  6 11  1  0
  6 12  1  0
  8  9  1  0
 10 11  1  0
 12 13  2  0
 12 18  1  0
 13 14  1  0
 14 15  2  0
 15 16  1  0
 15 17  1  0
 17 18  2  0
M  CHG  1   2   1
M  END
$$$$
