CypD-x0099-pandda-model
     RDKit          3D

 15 16  0  0  0  0  0  0  0  0999 V2000
   -4.5200   19.5867   25.0342 C   0  0  0  0  0  0  0  0  0  0  0  0
   -4.3317   19.3561   23.5759 N   0  0  0  0  0  0  0  0  0  0  0  0
   -4.7398   21.4768   22.9428 O   0  0  0  0  0  0  0  0  0  0  0  0
   -4.1021   17.9265   23.2116 C   0  0  0  0  0  0  0  0  0  0  0  0
   -4.9295   20.2681   20.3016 N   0  0  0  0  0  0  0  0  0  0  0  0
   -4.3213   20.3742   22.6537 C   0  0  0  0  0  0  0  0  0  0  0  0
   -5.5543   19.1695   19.8237 N   0  0  0  0  0  0  0  0  0  0  0  0
   -3.8084   20.1668   21.2439 C   0  0  0  0  0  0  0  0  0  0  0  0
   -6.3995   19.6077   18.9525 C   0  0  0  0  0  0  0  0  0  0  0  0
   -6.3848   21.0059   18.8347 C   0  0  0  0  0  0  0  0  0  0  0  0
   -7.0808   21.9557   18.0756 C   0  0  0  0  0  0  0  0  0  0  0  0
   -6.7964   23.2888   18.2432 C   0  0  0  0  0  0  0  0  0  0  0  0
   -5.8200   23.6979   19.1630 C   0  0  0  0  0  0  0  0  0  0  0  0
   -5.1306   22.7708   19.9093 C   0  0  0  0  0  0  0  0  0  0  0  0
   -5.4216   21.4122   19.7339 C   0  0  0  0  0  0  0  0  0  0  0  0
  1  2  1  0
  2  4  1  0
  2  6  1  0
  3  6  2  0
  5  7  1  0
  5  8  1  0
  5 15  1  0
  6  8  1  0
  7  9  2  0
  9 10  1  0
 10 11  1  0
 10 15  2  0
 11 12  2  0
 12 13  1  0
 13 14  2  0
 14 15  1  0
M  END
$$$$
