CypD-x0386-pandda-model
     RDKit          3D

 15 15  0  0  0  0  0  0  0  0999 V2000
   -3.4249   24.3518   20.9860 C   0  0  0  0  0  0  0  0  0  0  0  0
   -4.7962   23.9631   20.5699 N   0  0  0  0  0  0  0  0  0  0  0  0
   -7.9973   24.2876   20.8054 O   0  0  0  0  0  0  0  0  0  0  0  0
   -5.7641   25.1351   20.5514 C   0  0  0  0  0  0  0  0  0  0  0  0
   -7.1497   25.1761   22.5270 O   0  0  0  0  0  0  0  0  0  0  0  0
   -7.0623   24.9049   21.3277 C   0  0  0  0  0  0  0  0  0  0  0  0
   -5.1813   22.4141   22.1320 O   0  0  0  0  0  0  0  0  0  0  0  0
   -5.2635   22.7269   20.9543 C   0  0  0  0  0  0  0  0  0  0  0  0
   -5.8746   21.7972   20.0253 C   0  0  0  0  0  0  0  0  0  0  0  0
   -6.6402   22.2019   18.9265 C   0  0  0  0  0  0  0  0  0  0  0  0
   -7.3043   21.2834   18.1344 C   0  0  0  0  0  0  0  0  0  0  0  0
   -7.1914   19.9423   18.4421 C   0  0  0  0  0  0  0  0  0  0  0  0
   -6.4012   19.4962   19.4797 C   0  0  0  0  0  0  0  0  0  0  0  0
   -5.7460   20.4249   20.2599 C   0  0  0  0  0  0  0  0  0  0  0  0
   -7.8665   19.0716   17.7496 F   0  0  0  0  0  0  0  0  0  0  0  0
  1  2  1  0
  2  4  1  0
  2  8  1  0
  3  6  1  0
  4  6  1  0
  5  6  2  0
  7  8  2  0
  8  9  1  0
  9 10  2  0
  9 14  1  0
 10 11  1  0
 11 12  2  0
 12 13  1  0
 12 15  1  0
 13 14  2  0
M  CHG  1   3  -1
M  END
$$$$
